         234
 CSIRO Nanostructure Databank - Neutral Graphene Oxide Data Set
C          1.26283         2.06964         0.93967
C          1.20718         3.46450         0.62082
C          2.42066         1.34822         0.89343
C          2.33715         4.19109         0.29857
C          1.11799         6.40444         0.13474
C          1.07571         7.70619        -0.21443
C          2.36517         5.64400         0.18475
C          2.33350         8.46018        -0.58267
C          1.16724        10.62660         0.16108
C          1.19635        12.00166         0.39449
C          2.31345         9.95328        -0.27419
C          2.35164        12.75504         0.14636
C          1.13246        15.02361         0.58280
C          1.17049        16.38023         0.75815
C          2.36742        14.21822         0.45854
C          2.36874        17.15727         0.59464
C          2.45272        18.53996         0.78501
C          3.63796         1.92711         0.32532
C          3.59269         3.46819         0.03328
C          4.94970         1.32847         0.55624
C          4.87349         4.18620         0.07764
C          3.56882         6.32061         0.05163
C          3.55029         7.83672         0.11327
C          4.84369         5.63803         0.05027
C          4.82536         8.49590        -0.35622
C          3.50153        10.68687        -0.49745
C          3.51548        12.09465        -0.32914
C          4.74860         9.91982        -0.80040
C          4.72630        12.88595        -0.69429
C          3.62968        14.99049         0.19450
C          3.53332        16.46739         0.01599
C          4.83034        14.30625        -0.33156
C          4.80413        17.23861        -0.23954
C          3.65681        19.25032         0.62771
C          4.86796        18.63553         0.23457
C          6.11595         2.03077         0.28461
C          6.06076         3.46864         0.07921
C          7.40327         1.38428         0.37479
C          7.34698         4.18708         0.06267
C          6.02645         6.37367        -0.06558
C          6.01029         7.80110        -0.30375
C          7.32815         5.68288        -0.02376
C          7.31155         8.52783        -0.32308
C          6.03271        10.67079        -1.02887
C          6.03525        12.17851        -1.05497
C          7.30438         9.99849        -0.60820
C          7.29530        12.90798        -0.78084
C          6.02470        14.98547        -0.43701
C          6.07632        16.47181        -0.44399
C          7.27731        14.26424        -0.53820
C          7.37689        17.19648        -0.27250
C          6.11603        19.27728         0.36103
C          7.35750        18.61814         0.15880
C          8.60448         2.02228         0.07361
C          8.55383         3.43767        -0.47157
C          9.85090         1.35738         0.12309
C          9.82665         4.22285        -0.23436
C          8.53075         6.33383        -0.68925
C          8.59970         7.82140        -0.43863
C          9.79705         5.59634        -0.31973
C          9.80146         8.52116        -0.47525
C          8.59239        10.65673        -0.96072
C          8.58219        12.18337        -0.92216
C          9.84799         9.95976        -0.65115
C          9.85180        12.81594        -0.58591
C          8.51409        14.95647        -0.07058
C          8.60700        16.41603        -0.02144
C          9.83603        14.18619        -0.07080
C          9.81343        17.05284         0.23900
C          8.58605        19.23844         0.35749
C          9.83414        18.52339         0.31271
C         11.07820         2.02828        -0.10643
C         11.07795         3.49251        -0.19378
C         12.30868         1.35294        -0.08719
C         12.27856         4.16622        -0.27973
C         11.00306         6.37630        -0.03991
C         11.06401         7.82076        -0.34171
C         12.32075         5.59632        -0.02096
C         12.27998         8.49205        -0.37073
C         11.04996        10.66280        -0.66971
C         11.05688        12.11713        -0.65219
C         12.31055         9.94636        -0.51823
C         12.30177        12.84611        -0.51635
C         11.09246        14.94114        -0.02958
C         11.05383        16.30694         0.24386
C         12.32469        14.21109        -0.23942
C         12.33197        17.01066         0.46164
C         11.02607        19.22227         0.31531
C         12.32459        18.55999         0.46041
C         13.55221         2.01012        -0.36288
C         13.52524         3.47521        -0.76375
C         14.75620         1.35448        -0.40953
C         14.79630         4.20108        -0.35843
C         13.56580         6.34888        -0.21084
C         13.53774         7.75544        -0.27358
C         14.78574         5.63266        -0.18868
C         14.77957         8.44221        -0.26829
C         13.50389        10.63654        -0.53624
C         13.56473        12.11126        -0.90357
C         14.77374         9.89103        -0.56685
C         14.83932        12.80428        -0.44818
C         13.58863        14.93813        -0.15202
C         13.58906        16.32798         0.11093
C         14.82380        14.25191        -0.26280
C         14.80073        17.06397         0.11237
C         13.57145        19.21805         0.09221
C         14.77858        18.52670         0.05915
C         15.99411         2.09211        -0.85658
C         15.99269         3.52116        -0.35194
C         17.27916         1.36573        -0.61444
C         17.22188         4.17956         0.03583
C         16.00148         6.33923         0.01081
C         15.97759         7.75305        -0.01425
C         17.23110         5.61217         0.24924
C         17.18875         8.53163         0.44562
C         16.06265        10.64627        -0.55286
C         16.01466        12.11373        -0.32930
C         17.31933         9.87506        -0.24762
C         17.26891        12.82598         0.03186
C         16.03711        14.98243        -0.16887
C         16.02437        16.38142        -0.04158
C         17.32310        14.28662        -0.20822
C         17.34495        17.10773         0.15039
C         15.99449        19.22221        -0.21070
C         17.25796        18.60129        -0.20421
C         18.44563         2.03481        -0.28166
C         18.40790         3.43699         0.08937
C         19.71960         1.36649        -0.28765
C         19.62005         4.04082         0.64895
C         18.41924         6.30598         0.56066
C         18.49285         7.75087         0.49580
C         19.61031         5.54826         0.96460
C         19.68137         8.43250         0.67508
C         18.57925        10.60843        -0.00655
C         18.56125        12.09168         0.11937
C         19.72345         9.91705         0.65273
C         19.84608        12.78811        -0.07607
C         18.50950        14.93608        -0.37813
C         18.46878        16.40685        -0.75004
C         19.82263        14.20826        -0.60355
C         19.79802        17.13928        -0.60266
C         18.43689        19.31870        -0.31516
C         19.74476        18.65062        -0.39963
C         20.90249         2.03863        -0.02160
C         20.91351         3.37773         0.42166
C         22.12178         4.09847         0.65811
C         20.93569         6.24174         1.15130
C         20.96092         7.75765         1.01370
C         22.15036         5.42558         0.99902
C         22.21219         8.49990         0.70836
C         21.03288        10.67719         0.62024
C         21.03164        12.11327         0.15632
C         22.24959         9.83513         0.52920
C         22.24850        12.86817         0.14367
C         21.04667        14.98989        -0.16904
C         21.02175        16.42156        -0.16259
C         22.22738        14.25622         0.07136
C         22.12570        17.18525         0.22453
C         20.91370        19.30308         0.19277
C         22.06095        18.59254         0.41590
O          3.32220        14.54980         1.55915
O          3.85382        16.96356        -1.32401
O         20.94901         7.11477         2.33595
O          9.02492        14.31931         1.15758
O         15.50752        10.21477        -1.84973
O          8.60692        11.41153        -2.19118
O         17.73062        17.01296         1.46221
O         17.83155        12.47122         1.35443
O          5.17565        12.70446        -2.09049
O         20.03543        18.03010        -1.73923
O         12.41216        17.75783         1.70209
O         18.30701        10.00359        -1.31596
O         11.64572         6.00458         1.22196
O         20.25719        10.51819         1.86168
O          3.48682         2.47777        -1.02451
O          5.33536        10.07677        -2.15117
O          7.61695         5.00858         1.24465
O          7.31417         9.55439         0.77817
O          6.81802        16.97300        -1.62053
O         19.39278         4.55812         2.01107
O          8.29380         6.19235        -2.12276
H          9.06336         6.55855        -2.60614
O         19.92042        14.09744        -2.07716
H         19.45256        14.87579        -2.46096
O         13.46014         3.52054        -2.22382
H         14.25494         3.02286        -2.55049
O         15.88199         2.19872        -2.34728
H         16.68174         2.67222        -2.66305
O          3.42234         8.19140         1.52623
H          4.19715         7.82492         2.00289
O          8.35663         3.31543        -1.90627
H          9.12383         2.83292        -2.27865
O         13.60003        12.13610        -2.36972
H         14.33015        11.52252        -2.63465
O         16.88995         8.89492         1.83164
H         16.95532         8.08850         2.38586
O         18.07022        16.47277        -2.12759
H         18.55609        17.24202        -2.52027
O          2.53590         8.30959        -2.00735
H          1.81424         8.77336        -2.47914
H          0.34867         1.59821         1.32828
H          0.24593         3.97481         0.77128
H          2.46230         0.32975         1.30671
H          0.17370         5.87275         0.31998
H          0.09772         8.19095        -0.35641
H          0.23748        10.07605         0.35693
H          0.29291        12.49447         0.77843
H          0.16185        14.50838         0.61315
H          0.23340        16.91980         0.96390
H          1.56489        19.08294         1.14143
H          5.00511         0.29727         0.93724
H          3.67690        20.31621         0.89880
H          7.42369         0.32544         0.67854
H          6.13498        20.32289         0.70522
H          9.87201         0.28305         0.36590
H          8.61493        20.31322         0.59282
H         12.32028         0.26829         0.10331
H         11.00781        20.31981         0.23315
H         14.82189         0.27827        -0.18769
H         13.55086        20.29153        -0.15120
H         17.32451         0.29911        -0.88167
H         15.92940        20.28373        -0.50283
H         19.74994         0.30775        -0.58181
H         18.42593        20.41630        -0.21394
H         21.86188         1.51225        -0.13474
H         23.07232         3.55378         0.55462
H         23.11535         5.90193         1.22131
H         23.14995         7.92696         0.66101
H         23.20896        10.31678         0.28803
H         23.20596        12.36234         0.32896
H         23.17633        14.78861         0.22713
H         23.06596        16.68513         0.49324
H         20.83985        20.36061         0.48440
H         22.94418        19.10019         0.82891
