         252
 CSIRO Nanostructure Databank - Neutral Graphene Oxide Data Set
C         30.47442        31.73366         0.81216
C         30.54329        32.89730         1.26939
C         30.59009        35.94528         2.05341
C         30.47950        37.17830         1.97330
C         30.57823        39.94448         0.54754
C         30.39867        40.96034        -0.24773
C         32.83457        29.00614        -0.08769
C         31.71297        29.59000         0.00229
C         32.84319        31.69427         0.40569
C         31.53347        30.92923         0.34319
C         32.89040        33.06955         0.99309
C         31.68996        33.74342         1.38939
C         32.92332        35.85185         1.69733
C         31.71081        35.10216         1.75086
C         32.94565        37.34532         1.83556
C         31.59018        38.12880         1.99901
C         32.81092        40.33172         1.33845
C         31.52663        39.43546         1.34680
C         32.68057        41.58127         0.40710
C         31.42653        41.83179        -0.46350
C         32.72040        43.59373        -1.55545
C         31.69906        42.91898        -1.34022
C         35.57201        27.36698        -0.02610
C         35.31259        28.68739         0.40482
C         34.13829        29.41556         0.22171
C         35.34558        31.54972         1.06557
C         34.16308        30.91064         0.32612
C         35.44280        33.07121         0.75397
C         34.11720        33.76486         1.09123
C         35.37536        35.91856         1.35474
C         34.10988        35.14141         1.40118
C         35.23941        37.30947         0.80775
C         34.06152        38.10791         1.20910
C         35.26883        40.17515         0.59313
C         34.04654        39.47627         0.98875
C         35.26056        41.71489         0.65927
C         33.96083        42.28947         0.06540
C         35.23132        44.11507        -1.15167
C         34.11618        43.10998        -1.25027
C         35.45889        45.26707        -1.89960
C         37.48068        27.68969        -1.28941
C         36.52551        26.73488        -0.55151
C         37.79453        28.80999        -0.25197
C         36.59595        29.41096         0.58293
C         38.00020        31.51761         0.95227
C         36.65001        30.84010         0.79571
C         37.96312        33.04573         0.98736
C         36.67590        33.68135         1.48920
C         37.91909        35.89122         0.87965
C         36.68523        35.20747         1.34278
C         37.82940        37.29620         0.45230
C         36.50447        38.02521         0.40392
C         37.75407        40.22309         0.27484
C         36.45982        39.49883         0.42873
C         37.75852        41.69546         0.16839
C         36.47084        42.38127         0.05204
C         37.72195        44.34973        -0.78863
C         36.47403        43.64700        -0.57014
C         37.79799        45.52808        -1.57108
C         36.51898        45.95611        -2.01641
C         39.95285        24.97378        -2.36874
C         38.93640        25.61336        -2.09400
C         40.09680        27.74379        -1.87394
C         38.73698        27.05063        -1.88539
C         40.16555        28.96471        -1.00005
C         38.94484        29.70979        -0.54099
C         40.28071        31.78995        -0.28196
C         39.04651        30.95257        -0.00287
C         40.37250        32.99376         0.63608
C         39.14012        33.75609         0.95593
C         40.35809        36.07109         1.07578
C         39.14890        35.24732         1.01001
C         40.36312        37.45406         0.89054
C         39.11344        38.10658         0.48932
C         40.27214        40.33780         0.96849
C         39.00258        39.56117         0.76368
C         40.25769        41.83474         0.82929
C         38.95468        42.51534         0.51874
C         40.26743        44.50425        -0.43010
C         38.95259        43.90248        -0.08151
C         40.24144        45.78025        -1.13387
C         39.04544        46.23432        -1.70934
C         40.21835        48.26903        -2.45519
C         39.23900        47.51772        -2.31466
C         42.54478        24.87561        -2.49509
C         41.26796        25.52760        -2.84328
C         42.58392        27.49027        -1.68387
C         41.37701        26.97008        -2.04819
C         42.70158        28.95293        -1.36972
C         41.49393        29.57523        -0.74355
C         42.80331        31.50554        -0.00273
C         41.56386        30.97208        -0.27778
C         42.92048        32.72265         0.87500
C         41.57962        33.30683         1.15302
C         42.81677        36.04352         0.84203
C         41.65300        35.50497         1.35431
C         42.84957        37.49287         0.70468
C         41.59152        38.22425         0.90695
C         42.78563        40.38504         0.66143
C         41.56792        39.62664         0.83816
C         42.80102        41.75344         0.41145
C         41.53841        42.54733         0.49086
C         42.75853        44.47214        -0.68606
C         41.46210        43.87171        -0.16821
C         42.64703        45.99537        -0.75759
C         41.46613        46.58264        -1.12781
C         42.73837        48.55650        -1.86296
C         41.35080        48.15647        -1.44316
C         43.61263        25.36265        -2.12524
C         45.18136        27.32421        -1.58542
C         43.85242        26.62785        -1.36520
C         45.30691        28.85771        -1.31255
C         44.02565        29.62393        -1.13245
C         45.24925        31.56899        -0.11241
C         44.03890        30.87203        -0.33817
C         45.26601        32.95612         0.12994
C         43.96231        33.69079         0.27455
C         45.25194        35.93271         0.06925
C         43.94406        35.20756         0.33173
C         45.27626        37.49052        -0.02506
C         44.04318        38.16773         0.55731
C         45.30317        40.38748         0.48536
C         44.07485        39.63095         0.95711
C         45.32656        41.89173         0.78581
C         44.02233        42.54696         0.32286
C         45.25331        44.69675         0.30991
C         43.99350        43.88309        -0.00038
C         45.17147        46.18612        -0.14739
C         43.90849        46.80044        -0.62137
C         43.74893        48.04014        -1.38035
C         47.51532        27.32035        -1.03610
C         46.45359        26.69629        -1.22369
C         47.71041        28.67886        -0.61656
C         46.55544        29.43293        -0.74861
C         47.77665        31.61644        -0.40011
C         46.53943        30.78477        -0.02374
C         47.72605        32.99371         0.25953
C         46.51101        33.64915         0.31899
C         47.79104        35.87174         0.40271
C         46.51492        35.13954         0.23529
C         47.73333        37.32344         0.58502
C         46.60426        38.11461         0.45941
C         47.82009        40.48156         0.56155
C         46.60631        39.62606         0.42646
C         47.79034        41.86124         0.15053
C         46.55594        42.56593         0.18504
C         47.72638        44.58208        -0.51563
C         46.52346        43.93675        -0.08312
C         47.47154        45.96662        -0.80460
C         46.49498        46.67835        -0.54695
C         49.92136        28.74576         0.83937
C         48.97641        29.29053        -0.14562
C         50.01178        31.48990         0.88109
C         49.03591        30.79830        -0.04498
C         50.24792        32.94586         0.42957
C         48.95621        33.72967         0.76313
C         50.32456        35.90969         0.15891
C         48.98520        35.20324         0.37643
C         50.23789        37.36989         0.56646
C         49.03757        37.83160         1.00370
C         50.30002        40.55725         0.69628
C         49.02198        40.02552         1.04428
C         50.30436        41.88780         0.15192
C         49.03194        42.54446        -0.05591
C         50.25993        44.41484        -0.79193
C         48.95695        43.91365        -0.50195
C         50.84903        29.26816         1.47464
C         52.07751        31.55459         2.15375
C         50.94336        30.69348         1.81357
C         52.14587        32.78116         2.00325
C         51.49538        33.68290         1.04122
C         52.23313        36.13517         1.77196
C         51.51046        35.16885         0.95394
C         52.19809        37.37352         1.85298
C         51.53834        38.19133         0.70937
C         52.55016        40.52057         0.44624
C         51.46423        39.71534         0.79559
C         52.69420        41.72606         0.07628
C         51.56890        42.53471        -0.17124
C         51.37286        43.86463        -0.64857
O         45.35070        28.25331        -2.64870
O         41.68466        34.32709         2.10940
O         39.21969        27.79865        -3.04339
O         37.99015        40.83328        -1.04803
O         36.18056        35.86202         2.59063
O         38.59262        37.61350        -0.77079
O         37.65965        28.53737         1.12443
O         32.47986        37.93784         3.09575
O         45.84912        40.07190        -0.79181
O         43.28403        29.77914        -2.41234
O         33.07648        42.82455         1.07840
O         35.60258        37.42992        -0.59667
O         41.00014        42.52116         1.87082
O         40.91385        28.63317         0.24198
O         49.02285        38.91270         1.87839
O         44.36867        46.96754         0.76279
O         33.65514        31.60396        -0.84068
O         45.93466        35.42165        -1.11307
O         39.43252        39.89053         2.10960
O         49.70105        31.25976         2.29819
O         38.68996        43.66227         1.35001
O         49.65386        30.10400        -1.16342
O         43.50679        34.44922        -0.87731
O         52.30696        34.33589         0.05373
O         34.98688        31.35552         2.46067
H         35.60598        31.90146         3.00806
O         41.18690        25.82159        -4.19737
H         40.39604        26.38258        -4.35516
O         43.46456        32.26777         2.14561
H         43.07925        32.83284         2.85086
O         40.98737        48.80301        -0.26873
H         40.93344        49.76821        -0.41981
O         45.15602        37.77579        -1.43951
H         45.62147        37.05386        -1.92446
O         38.49257        31.13324         2.28412
H         37.91407        31.57819         2.94336
O         35.73129        33.26661        -0.63784
H         34.99950        32.85807        -1.16184
O         44.16499        39.59737         2.41746
H         44.40637        40.50844         2.72068
O         43.79469        26.38078         0.03752
H         43.02965        25.80110         0.23604
O         47.75011        31.83051        -1.81481
H         48.60486        32.23716        -2.07822
O         36.61059        33.37475         2.90617
H         36.35678        34.21694         3.36473
O         46.70176        30.49485         1.39427
H         45.82698        30.27946         1.78196
O         45.32021        44.75761         1.76986
H         44.79736        45.54519         2.05284
O         45.40142        42.04012         2.22723
H         45.39236        43.01529         2.41370
O         32.99139        40.80046         2.68254
H         32.34013        41.51324         2.85761
O         52.32075        37.98386        -0.44428
H         52.21036        37.05893        -0.76214
O         50.65200        35.81008        -1.23562
H         50.76686        34.85203        -1.44886
O         36.78323        28.32642        -2.34554
H         36.74547        27.72722        -3.11947
O         34.49311        42.15435        -2.24541
H         34.69524        42.62162        -3.08281
O         48.85707        33.80709         2.21100
H         48.92104        32.89853         2.59166
O         42.90856        44.04507        -2.08156
H         42.14844        44.39373        -2.59445
O         50.37909        32.94766        -1.00322
H         51.19791        32.46572        -1.25035
O         40.12578        32.25652        -1.65377
H         40.90193        32.80827        -1.89014
O         35.34348        42.05051         2.05983
H         34.51220        41.74035         2.50294
