         272
 CSIRO Nanostructure Databank - Neutral Graphene Oxide Data Set
C        -11.29662         0.54117         0.59798
C        -10.11548         1.36103         0.17189
C         -8.83883         0.63481        -0.20794
C         -7.53294         1.30035         0.10272
C         -6.31266         0.64904        -0.46103
C         -5.16442         1.44944        -0.94792
C         -3.91638         0.77612        -1.43010
C         -2.59211         1.48468        -1.25580
C         -1.31868         0.75702        -1.57938
C         -0.02064         1.39003        -1.05757
C          1.28246         0.70720        -1.31988
C          2.51437         1.56757        -1.65745
C          3.87186         0.78080        -1.63279
C          5.14616         1.54330        -1.37364
C          6.42681         0.84959        -0.98345
C          7.44972         1.61324        -0.12851
C          8.84388         0.92129        -0.17776
C         10.14598         1.63238        -0.38391
C         11.38527         0.82338        -0.53970
C        -10.00553         2.80803         0.58600
C         -8.84374         3.52782         0.45914
C         -7.57127         2.77100         0.30624
C         -6.36007         3.50020        -0.16038
C         -5.09210         2.71053        -0.14917
C         -3.78019         3.29134         0.22338
C         -2.50979         2.44912        -0.05694
C         -1.20340         3.27619         0.11580
C         -0.07122         2.93288        -0.86436
C          1.28393         3.61190        -0.51292
C          2.56582         2.82899        -0.76087
C          3.85361         3.59314        -0.63541
C          5.12836         3.04956        -1.21501
C          6.40076         3.83296        -1.06279
C          7.59004         3.13705        -0.39008
C          8.94459         3.76465        -0.62780
C         10.12541         3.10237        -0.56718
C         -8.71903         4.99270         0.54484
C         -7.55188         5.68925         0.35938
C         -6.31280         4.96290        -0.02284
C         -4.94910         5.59431         0.01863
C         -3.75607         4.77517         0.49570
C         -2.46096         5.42337         0.88821
C         -1.17171         4.61847         0.82848
C          0.17698         5.33572         1.19165
C          1.35796         4.87750         0.31547
C          2.73334         5.36300         0.81738
C          3.81042         5.04709        -0.22474
C          5.01282         5.92696        -0.38187
C          6.40823         5.42013        -0.94342
C          7.56555         5.92969        -0.08581
C          8.55813         4.89150         0.31258
C         -7.47310         7.19490         0.09935
C         -6.13892         7.85802         0.54932
C         -4.89234         7.07043         0.12616
C         -3.55546         7.71968         0.37589
C         -2.33849         6.91114         0.67942
C         -1.19828         7.67952         1.33544
C          0.12537         6.88294         1.39617
C          1.42516         7.63289         1.42576
C          2.72377         6.88072         1.20754
C          3.95797         7.71994         1.12386
C          5.09755         7.30372         0.24514
C          6.39396         8.04579         0.39160
C          7.60950         7.19819         0.37653
C         -5.94763         9.26854         0.01160
C         -4.75114         9.87537         0.07968
C         -3.57419         9.20627         0.76351
C         -2.20559         9.76605         0.42252
C         -1.09053         9.03566         0.63379
C          0.26154         9.43758         0.09279
C          1.36268         9.19906         1.13254
C          2.70221         9.69877         0.66742
C          3.84853         9.27183         1.50288
C          5.20140         9.94994         1.43247
C          6.35806         9.33343         1.13597
C        -11.53676        -0.79969         0.52481
C        -10.71275        -1.82658        -0.13886
C         -8.83550        -0.82111        -0.46088
C         -7.96476        -1.76304        -0.03954
C         -6.08363        -0.66694        -0.25541
C         -5.16732        -1.45657        -1.08737
C         -3.96042        -0.72226        -1.64519
C         -2.67946        -1.49801        -1.89913
C         -1.37513        -0.68916        -2.21269
C         -0.02887        -1.48071        -1.97420
C          1.26887        -0.73556        -1.76316
C          2.57784        -1.48515        -1.53699
C          3.88734        -0.74404        -1.56017
C          5.23822        -1.53035        -1.27932
C          6.43017        -0.64401        -0.86084
C          7.56829        -1.25682        -0.02038
C          8.84100        -0.56464        -0.43019
C         10.16266        -1.30952        -0.24609
C         11.41030        -0.50176        -0.28535
C        -10.42788        -3.09357         0.26769
C         -9.30815        -3.97648        -0.32666
C         -7.96367        -3.14217        -0.59468
C         -6.58016        -3.69846        -0.97377
C         -5.22898        -2.94176        -0.82922
C         -3.93078        -3.66293        -1.01743
C         -2.68508        -2.97530        -1.57039
C         -1.35666        -3.72957        -1.47879
C         -0.04760        -2.98760        -1.69691
C          1.25842        -3.69319        -1.27394
C          2.49195        -2.86803        -0.94945
C          3.74496        -3.51093        -0.41900
C          5.03746        -2.72135        -0.33288
C          6.27812        -3.36659         0.21837
C          7.61727        -2.79594        -0.28463
C          8.87786        -3.37240         0.44359
C         10.03580        -2.58191         0.45113
C         -9.01377        -5.10129         0.68771
C         -8.37960        -6.23078         0.44671
C         -6.46232        -5.18728        -1.24161
C         -5.19029        -5.91995        -0.83468
C         -3.90875        -5.16684        -0.98843
C         -2.67751        -5.64086        -0.27372
C         -1.36722        -5.09505        -0.79512
C         -0.08732        -5.75295        -0.35862
C          1.23668        -5.08281        -0.66311
C          2.51849        -5.74472        -0.11545
C          3.82240        -5.01300        -0.24110
C          5.06503        -5.62697         0.35476
C          6.29907        -4.81426         0.59690
C          7.63748        -5.55459         0.47494
C          8.83548        -4.70720         0.83363
C         -7.86105        -7.43455         0.25744
C         -6.45412        -7.83820         0.56598
C         -5.20682        -7.13188         0.07906
C         -3.88439        -7.90965         0.11864
C         -2.70597        -6.97785         0.37797
C         -1.41297        -7.62576         0.83389
C         -0.13800        -6.87599         0.65209
C          1.13805        -7.61582         0.94609
C          2.35538        -6.71958         1.06427
C          3.52217        -7.61718         1.60300
C          5.39225        -7.07812         0.04498
C          6.43942        -7.66827         0.93486
C          7.55372        -6.91700         1.13832
C         -6.28267        -9.27913         0.91885
C         -5.09011        -9.84160         1.17229
C         -3.83076        -9.00987         1.22012
C         -2.54107        -9.78397         1.01583
C         -1.37061        -9.12176         0.88518
C         -0.08164        -9.85985         0.50123
C          1.20049        -9.11115         0.88419
C          2.55026        -9.72568         0.74536
C          3.67031        -9.03044         1.10246
C          4.98300        -9.66752         1.26483
C          6.19704        -9.05022         1.33459
O         -2.95855        -5.75747         1.14536
O         -6.82433        -1.38018         0.69731
O         -1.93404         1.72835        -2.49666
O         -6.53610         4.29912        -1.35218
O         -7.29884        -5.76233        -1.91360
O         -0.75011        -6.14958        -1.60476
O          1.03565        -8.42283         2.16597
O          5.53239         8.21367        -0.79424
O         -1.04942         3.35570         1.54979
O          6.55129         5.96100        -2.18488
O         -9.66066         1.27898        -1.22805
O          2.75236        -2.89351         0.48543
O          0.71951         0.76939         0.03228
O          1.26594         4.95903        -1.11346
O          4.93905        -7.71281        -0.88898
O          3.39715         2.66987         0.41377
O         -7.35718         1.85737         1.44431
O          5.45414        -5.20395         1.69536
O          0.79779         7.24454         2.66060
O         -2.91084        -2.50245        -2.91986
O          9.60101         1.31222         0.99786
O          3.33502        -1.34852        -2.76580
O         -4.84801         6.43224        -1.18518
O         -0.68858        -3.73561        -2.75937
O         -2.58893         7.37308        -0.67352
O          4.72035         1.20698        -2.73483
O         -7.48951        -3.12516        -1.96271
O          6.99309         0.04069        -2.03480
O         -4.59510         2.56877         1.20891
O         -4.37113        -6.01968        -2.06756
O         -5.73140        -6.87120         1.41299
O          5.86629         3.54733        -2.37312
O          5.44000        -2.50509         1.05308
O          7.77672        -3.15083        -1.59790
O         -5.08508        -1.08040        -2.48682
O          9.47703        -1.12353        -1.56172
O         -3.42263         5.05639         1.90848
O          3.92942         5.94181        -1.35066
O          0.83225        -1.09141        -3.09636
O         -0.87043        -6.77197         1.90201
O         -4.80528         1.51651        -2.34237
O          3.70366         6.97635         2.32250
O          3.36721        -5.94060        -1.26406
O          1.44427        -4.85679        -2.08869
O         -4.39151        -3.24962         0.32135
O          7.65299         3.86427         0.94286
O         -9.93778        -1.29500        -1.19735
O          4.16275        -7.23610         2.56262
O          2.04643        -5.79330         2.13013
H          1.89631        -6.31596         2.94783
O          2.28625         2.02045        -2.99962
H          3.15081         1.98672        -3.47938
O          3.48626         9.36470         2.89534
H          3.55187         8.45611         3.28458
O          0.57165         8.60212        -1.02737
H         -0.16507         8.63941        -1.67275
O         -7.61866         7.37058        -1.31309
H         -6.91854         6.84126        -1.75920
O          7.46472        -1.01049         1.38084
H          6.58328        -1.31669         1.70518
O         -0.08961       -10.10929        -0.91104
H         -0.34462        -9.29411        -1.39034
O         -9.75415        -4.50311        -1.55868
H         -8.98094        -4.89521        -2.03177
O          3.12009         4.64187         1.98298
H          2.36100         4.63584         2.61262
O         -0.48928         3.57131        -2.07598
H          0.18634         3.42435        -2.77216
O          7.87775        -5.75266        -0.94663
H          7.89573        -4.84452        -1.39409
O         -3.68632        -8.55373        -1.15144
H         -3.79058        -7.87726        -1.86291
O         -3.74815        -8.37634         2.50715
H         -4.46122        -7.69524         2.55543
O          6.93595         1.49016         1.20073
H          7.63323         1.81116         1.81589
O         -1.59836         7.90262         2.70856
H         -0.79717         8.23902         3.17895
O          5.60453        -2.14877        -2.51107
H          6.10371        -1.49912        -3.05400
O          0.53059         4.82225         2.49490
H         -0.20101         5.00619         3.12091
O         -3.82407         9.31050         2.18967
H         -3.05430         8.89228         2.65926
O         -1.50495        -0.48334        -3.61322
H         -0.60972        -0.38888        -4.00975
O          0.94468         9.84323         2.34094
H          1.74293         9.88966         2.92580
O         -2.45121         1.43903         0.98094
H         -2.39597         1.89702         1.85049
O         -6.16144         7.87592         1.98925
H         -5.42102         8.45868         2.30376
H         12.36947        -1.04083        -0.26851
H         12.32709         1.37084        -0.69339
H         11.05977         3.65855        -0.38927
H          9.34814         5.25644         1.00819
H          8.48200         7.55482         0.94712
H          7.31194         9.86538         1.27458
H          5.22951        10.95050         1.88977
H          2.86039         9.83657        -0.41495
H          0.24426        10.51847        -0.21681
H         -2.13455        10.74498        -0.07883
H         -4.61863        10.89512        -0.31363
H         -6.80216         9.77482        -0.46223
H         -8.32119         7.72473         0.59762
H         -9.64816         5.55976         0.71622
H        -10.94938         3.33249         0.80691
H        -12.04540         1.12451         1.16123
H        -12.44627        -1.16077         1.03326
H        -10.99284        -3.51515         1.11321
H         -9.40582        -4.94879         1.71143
H         -8.53174        -8.24659        -0.07688
H         -7.19470        -9.89547         0.92851
H         -5.03073       -10.91314         1.41699
H         -2.57051       -10.88348         0.96298
H         -0.07174       -10.86005         1.00348
H          2.61963       -10.77602         0.42293
H          4.95783       -10.75579         1.43878
H          7.07421        -9.65668         1.61086
H          8.40767        -7.28800         1.72579
H          9.79323        -5.24894         0.92528
H         10.83831        -2.83350         1.16535
