         667
 CSIRO Nanostructure Databank - Neutral Graphene Oxide Data Set
C          6.08924        32.03802         0.71513
C          6.10221        33.37430         0.50242
C          8.46647        27.64954         0.72874
C          8.45577        29.04811         0.62476
C          7.23876        29.84111         0.67859
C          8.50065        31.86540        -0.06342
C          7.25656        31.20136         0.50186
C          8.57262        33.35602         0.22833
C          7.29107        34.07673        -0.13304
C          8.47649        36.21994         0.50449
C          7.34152        35.55929         0.13087
C          8.55128        37.65824         0.49386
C         10.82614        23.29138         0.48812
C         10.82850        24.69440         0.57799
C          9.65352        25.46848         0.59555
C         10.93235        27.57252         0.78422
C          9.67972        26.88696         0.71940
C         10.93994        29.05140         1.06107
C          9.70090        29.75078         0.58511
C         10.95941        31.82866         0.50462
C          9.75245        31.14020         0.39616
C         10.99550        33.27294         0.90289
C          9.70546        33.99811         0.57527
C         10.95236        36.18703         0.31746
C          9.72154        35.46701         0.93985
C         11.04891        37.63647         0.86608
C          9.74833        38.36446         0.56248
C         10.96467        40.46471         0.06513
C          9.78413        39.77056         0.40756
C         10.99319        41.88820        -0.03286
C         13.30710        18.99018         0.60556
C         13.29724        20.38304         0.45975
C         12.06168        21.13469         0.47902
C         13.26877        23.24251         0.00118
C         12.02380        22.51735         0.37978
C         13.30619        24.72497         0.14821
C         12.14826        25.38355         0.85689
C         13.39238        27.54727         0.55629
C         12.15364        26.88462         0.67649
C         13.49840        29.02046         0.86586
C         12.20648        29.74449         0.64286
C         13.43264        31.84342         0.23036
C         12.20300        31.11178         0.47291
C         13.43714        33.24873         0.14508
C         12.23746        34.00376         0.40751
C         13.48027        36.07483         0.02601
C         12.25005        35.38838         0.33735
C         13.51375        37.55943        -0.00567
C         12.29361        38.35747         0.33472
C         13.26916        40.32807        -0.85062
C         12.17376        39.73103        -0.19535
C         13.09380        41.75100        -1.36283
C         12.10162        42.54570        -0.56971
C         13.29818        44.70450        -1.11074
C         12.24254        43.93964        -0.54989
C         13.19624        46.06531        -0.77668
C         15.77881        14.72035         0.84869
C         15.76681        16.13330         0.73208
C         14.54679        16.84667         0.69034
C         15.77429        18.96905         0.65051
C         14.52653        18.25482         0.63122
C         15.74861        20.39281         0.60361
C         14.55132        21.07840         0.39989
C         15.79430        23.30262         0.20604
C         14.57759        22.48162        -0.15732
C         15.80433        24.68061         0.06638
C         14.60340        25.43508         0.15880
C         15.85781        27.56287         0.25652
C         14.61848        26.84153         0.33905
C         15.88434        28.95592         0.04919
C         14.66175        29.70307         0.19141
C         15.75329        31.76568        -0.64715
C         14.60874        31.07113        -0.04101
C         15.78965        33.22535        -0.61727
C         14.65706        33.94421        -0.23053
C         15.95099        36.14003        -0.42006
C         14.64780        35.38632        -0.24844
C         15.78735        37.53576        -0.97150
C         14.60719        38.21460        -0.76866
C         15.64757        40.34463        -1.53011
C         14.43940        39.59432        -1.12863
C         15.38507        41.69357        -2.07435
C         14.38563        42.50477        -1.65767
C         15.85189        44.65992        -1.76197
C         14.40333        44.02285        -1.97795
C         15.97307        46.04070        -1.67338
C         14.11938        47.08263        -1.12347
C         15.71919        48.88102        -0.52897
C         14.42184        48.23217        -0.43000
C         15.74337        50.23440        -0.19712
C         18.17429        10.43873         1.38911
C         18.16761        11.81903         1.30864
C         16.98238        12.58196         1.11603
C         18.22295        14.73196         0.93824
C         16.98174        13.99662         0.98886
C         18.23369        16.09905         0.70674
C         17.01564        16.85260         0.66210
C         18.26581        19.02698         0.69609
C         17.01876        18.27436         0.64526
C         18.28351        20.39153         0.88957
C         17.00301        21.13126         0.89175
C         18.31239        23.32686         0.48442
C         17.02521        22.62938         0.65261
C         18.34506        24.65567         0.13610
C         17.09003        25.42064        -0.21193
C         18.37955        27.52168        -0.03436
C         17.14002        26.79860         0.44662
C         18.35354        28.92485        -0.26513
C         17.12365        29.62206        -0.25902
C         18.32608        31.80929        -0.81981
C         17.08798        31.00788        -0.75120
C         18.29770        33.14774        -1.11509
C         17.00148        33.87921        -1.16375
C         18.32722        36.09394        -1.23826
C         17.02355        35.37527        -1.18390
C         18.29553        37.45735        -1.34565
C         16.97848        38.15699        -1.68081
C         18.28723        40.36927        -2.01903
C         17.00543        39.69411        -1.53825
C         18.41861        41.86353        -1.88939
C         17.33341        42.67963        -2.17673
C         18.30070        44.63163        -1.17411
C         17.12859        43.97794        -1.66018
C         18.27336        46.03855        -0.86259
C         17.07115        46.76771        -1.08610
C         18.18457        48.83039        -0.32241
C         16.97543        48.15799        -0.70653
C         18.17968        50.21344         0.02921
C         16.94897        50.95162         0.01947
C         18.12426        53.01731         0.67341
C         16.94090        52.33018         0.28339
C         18.09128        54.37056         1.00831
C         20.43472         6.19663         0.31511
C         20.50065         7.61656         0.82542
C         19.43961         8.24233         1.36830
C         20.66777        10.44104         1.41465
C         19.41490         9.69062         1.82303
C         20.70820        11.78521         1.28494
C         19.45444        12.55704         1.46251
C         20.78978        14.69523         0.93659
C         19.49165        14.02929         1.22169
C         20.79484        16.08700         0.71500
C         19.52245        16.78843         0.47315
C         20.83359        18.96652         0.72077
C         19.54146        18.30084         0.49946
C         20.86240        20.36120         1.29812
C         19.54370        21.14187         1.15214
C         20.82967        23.34057         0.60011
C         19.55929        22.65101         0.88889
C         20.83345        24.67286         0.18096
C         19.57945        25.37743         0.03467
C         20.78165        27.42467        -0.78852
C         19.55678        26.77772        -0.19708
C         20.77827        28.92895        -0.69389
C         19.59923        29.61766        -0.55483
C         20.71435        31.68275        -1.47394
C         19.65037        31.13142        -0.52167
C         20.77756        33.19381        -1.30436
C         19.55370        33.90771        -1.22069
C         20.80736        36.02063        -1.38702
C         19.56666        35.32630        -1.23305
C         20.82762        37.45981        -1.44691
C         19.56562        38.24999        -1.15068
C         20.84030        40.43069        -1.79787
C         19.55566        39.60242        -1.85130
C         20.72806        41.66094        -0.87262
C         19.52661        42.49147        -1.26334
C         20.69075        44.49849        -0.32682
C         19.49549        43.86877        -1.01106
C         20.72370        46.00776        -0.42203
C         19.47376        46.71640        -0.48628
C         20.65244        48.81232         0.02369
C         19.43788        48.12089        -0.27950
C         20.62423        50.17771         0.39093
C         19.37928        50.88706         0.41878
C         20.56106        52.91960         1.18108
C         19.35300        52.25642         0.78495
C         20.56186        54.32298         1.38058
C         19.27703        55.08147         1.57096
C         20.57394        57.14002         0.86614
C         19.35095        56.48491         1.04340
C         20.64459        58.53944         0.63985
C         23.00749         3.36060         0.09495
C         21.76350         4.08716         0.21443
C         22.99796         6.15873         0.56376
C         21.74574         5.44095         0.42381
C         23.03151         7.53044         0.59000
C         21.76376         8.35206         0.44753
C         23.21828        10.32372         1.24013
C         21.89737         9.63693         1.23019
C         23.23326        11.83056         1.47646
C         21.98128        12.47632         0.82875
C         23.23197        14.68893         1.01704
C         21.99798        13.98082         0.97460
C         23.22278        16.10283         0.92239
C         22.01412        16.80178         0.66191
C         23.29978        18.98705         0.35365
C         22.00627        18.25723         0.62955
C         23.28957        20.46181         0.69512
C         22.11278        21.13324         0.90063
C         23.37317        23.32138         0.64330
C         22.08508        22.61607         0.92183
C         23.34700        24.63098        -0.10581
C         22.06805        25.42187        -0.01168
C         23.28476        27.52824        -0.50531
C         22.07099        26.76895        -0.34771
C         23.28133        28.87382        -0.89755
C         22.03199        29.62494        -0.98314
C         23.25903        31.65251        -1.85504
C         22.03105        30.95269        -1.32786
C         23.28496        33.10292        -1.37020
C         22.00424        33.87797        -1.38599
C         23.27977        35.99918        -1.88573
C         22.01894        35.28375        -1.46563
C         23.29661        37.46976        -1.56433
C         22.04372        38.16831        -1.51414
C         23.24862        40.29993        -1.28104
C         22.06160        39.60635        -1.45562
C         23.23832        41.74730        -1.10261
C         22.01496        42.45484        -0.94858
C         23.19109        44.57716        -0.69326
C         21.99398        43.83983        -0.71303
C         23.20890        46.01456        -0.46325
C         21.92457        46.70758        -0.35128
C         23.12327        48.83983         0.03307
C         21.92036        48.13543        -0.11464
C         23.11435        50.17130         0.58557
C         21.83288        50.84619         0.76876
C         23.00874        52.83541         1.71319
C         21.78405        52.17003         1.21788
C         23.04123        54.33547         1.64915
C         21.78866        55.05253         1.33508
C         23.11758        57.07729         0.70559
C         21.81557        56.41066         1.05660
C         23.09874        58.56593         0.89907
C         21.86999        59.26222         0.75224
C         23.09070        61.37422         0.88103
C         21.88656        60.68433         0.74372
C         24.20079         3.96376         0.28614
C         25.48168         6.13375         0.18128
C         24.29240         5.39208         0.74860
C         25.50536         7.50672         0.11945
C         24.28686         8.25514         0.45329
C         25.45403        10.41238        -0.03213
C         24.33517         9.62398         0.57787
C         25.56212        11.82333         0.48473
C         24.48875        12.50294         0.96916
C         25.71498        14.63025         1.03207
C         24.50933        13.97290         1.06680
C         25.79748        16.08621         1.22556
C         24.46283        16.87005         1.16193
C         25.76624        18.94787         0.77255
C         24.54746        18.28639         0.82092
C         25.79674        20.39296         0.58446
C         24.58035        21.13961         0.57561
C         25.84989        23.23265         0.30618
C         24.62047        22.54124         0.47882
C         25.87521        24.68511         0.16646
C         24.59517        25.41663         0.22399
C         25.82851        27.49034        -0.51382
C         24.56377        26.89282        -0.10050
C         25.76283        28.78534        -1.18961
C         24.51401        29.56838        -1.17802
C         25.80280        31.61348        -1.68581
C         24.55667        30.91489        -1.55753
C         25.78504        33.07824        -2.06566
C         24.58359        33.82053        -1.46593
C         25.75363        35.99428        -1.59350
C         24.57190        35.30132        -1.55211
C         25.76548        37.44181        -1.55153
C         24.51081        38.15876        -1.50057
C         25.70275        40.31184        -1.28403
C         24.51039        39.59967        -1.33053
C         25.71277        41.72215        -0.97082
C         24.45167        42.43992        -0.94866
C         25.63398        44.56201        -0.62410
C         24.43317        43.87039        -0.80054
C         25.71615        46.05104        -0.74200
C         24.39678        46.71626        -0.42941
C         25.69795        48.91240        -0.06232
C         24.39314        48.22289        -0.52487
C         25.59869        50.20500         0.67396
C         24.29331        50.80837         0.94943
C         25.56276        52.89100         1.61498
C         24.30689        52.04612         1.80963
C         25.55992        54.30279         1.64494
C         24.33467        55.04456         1.53412
C         25.58655        57.14038         1.30606
C         24.34549        56.40220         1.26844
C         25.55365        58.54969         1.17007
C         24.32565        59.26701         1.02844
C         24.29672        60.68912         1.02694
C         26.71765         8.25332        -0.10454
C         27.97263        10.36498        -0.14976
C         26.75719         9.64529        -0.07262
C         28.04222        11.77033        -0.05133
C         26.77384        12.60169         0.02774
C         28.19614        14.59509         0.49104
C         26.98893        13.81717         0.93091
C         28.32730        16.04471         0.88546
C         27.02352        16.81952         0.90235
C         28.27376        18.93840         0.61912
C         27.02010        18.20314         0.79512
C         28.28133        20.33490         0.65590
C         27.03972        21.08496         0.55579
C         28.31479        23.26787         0.45447
C         27.05110        22.49708         0.37956
C         28.32502        24.69264         0.04097
C         27.05923        25.40034         0.00192
C         28.28123        27.52593        -0.55685
C         27.03575        26.81399        -0.35764
C         28.31846        28.85691        -0.94995
C         27.08720        29.52134        -1.39490
C         28.28553        31.69936        -1.43580
C         27.04104        30.98193        -1.50439
C         28.25231        33.13724        -1.51350
C         27.06961        33.80526        -1.72593
C         28.28523        36.01254        -1.54699
C         27.03667        35.28760        -1.97894
C         28.24409        37.44547        -1.40160
C         26.99020        38.12516        -1.43369
C         28.24138        40.32691        -0.98215
C         26.98664        39.60420        -1.39923
C         28.26712        41.81765        -0.68773
C         26.86806        42.36662        -0.55658
C         27.93010        44.44734         0.45393
C         26.77890        43.77465        -0.19226
C         27.98557        45.92683         0.37937
C         26.90759        46.65577        -0.01714
C         27.82084        48.54866         1.32652
C         27.04893        48.16361         0.02482
C         27.95393        50.04830         1.45665
C         26.80402        50.79054         1.31497
C         28.04875        52.89113         1.70422
C         26.79072        52.20497         1.55289
C         28.03016        54.30621         1.73893
C         26.81417        55.02148         1.63212
C         26.79058        56.43570         1.52854
C         29.25091        12.46072        -0.10885
C         30.57362        14.58186        -0.11979
C         29.32204        13.89165         0.05552
C         30.65263        15.97318        -0.07983
C         29.34474        16.73774        -0.02263
C         30.69452        18.82021         0.11025
C         29.48988        18.19579         0.33846
C         30.82006        20.26866         0.33739
C         29.57803        21.04465         0.68892
C         30.95423        23.26369         0.42123
C         29.60847        22.54687         0.62677
C         30.79958        24.64069        -0.22651
C         29.52147        25.33488        -0.18648
C         30.81349        27.49700        -0.71774
C         29.54256        26.80864        -0.31677
C         30.77325        28.91501        -1.10970
C         29.55626        29.59711        -1.10143
C         30.79247        31.71530        -1.40287
C         29.52590        31.01947        -1.31031
C         30.81191        33.16708        -1.39179
C         29.50363        33.87241        -1.09424
C         30.73417        36.09280        -1.37125
C         29.47274        35.33637        -1.43632
C         30.66705        37.47519        -0.87959
C         29.43375        38.11764        -0.97013
C         30.49628        40.11533         0.24897
C         29.31723        39.47499        -0.41533
C         30.43208        41.56903         0.58549
C         29.26847        42.24844         0.38602
C         30.38512        44.36304         1.29845
C         29.14858        43.65085         0.84912
C         30.47986        45.79026         0.75948
C         29.19999        46.56546         0.89972
C         30.31664        48.43870         2.11273
C         29.15266        47.83048         1.37102
C         30.37705        49.93527         1.93530
C         29.21624        50.69717         1.76046
C         29.23549        52.12483         1.79516
C         31.87038        16.66679        -0.19912
C         33.14666        18.77131        -0.26637
C         31.92724        18.08494        -0.16236
C         33.22536        20.19805        -0.39650
C         31.90795        20.94347        -0.46536
C         33.14937        23.03713        -0.70898
C         32.03614        22.42790        -0.24605
C         33.13862        24.48893        -0.96591
C         31.91158        25.25840        -0.73464
C         33.26212        27.39554        -1.20069
C         31.92624        26.66106        -1.29643
C         33.22649        28.82439        -1.36675
C         32.02160        29.57723        -1.35913
C         33.29369        31.74776        -1.76004
C         31.99992        31.00772        -1.47739
C         33.28695        33.20193        -1.32689
C         32.00519        33.86623        -1.31821
C         33.21127        36.06226        -0.77311
C         32.03254        35.35059        -1.30011
C         33.12321        37.40965        -0.40313
C         31.84922        38.11786        -0.36850
C         32.95890        40.11337         0.62991
C         31.78378        39.41361         0.16947
C         32.86888        41.37989         1.19195
C         31.53722        42.04572         1.51950
C         32.93895        44.25905         1.15717
C         31.66978        43.62690         1.70526
C         33.00362        45.77966         0.93423
C         31.70505        46.50310         1.26229
C         31.62849        47.72758         1.81848
C         34.39531        20.86363        -0.65110
C         35.61607        23.09479        -0.69107
C         34.39964        22.28981        -1.15061
C         35.63458        24.44820        -0.67077
C         34.43955        25.21741        -1.09829
C         35.82960        27.27371        -1.36490
C         34.44872        26.69866        -1.08079
C         35.82934        28.80731        -1.42826
C         34.50550        29.54542        -1.48643
C         35.78064        31.67917        -1.25521
C         34.49813        30.98895        -1.26630
C         35.76628        33.18923        -1.19353
C         34.45954        33.89753        -1.07056
C         35.62803        36.00522        -0.40985
C         34.46487        35.32734        -0.72544
C         35.65537        37.51438        -0.29734
C         34.30576        38.13195         0.00544
C         35.44120        40.10209         0.97419
C         34.23609        39.42379         0.49777
C         35.37934        41.38252         1.44755
C         34.09151        42.11102         1.69424
C         34.07390        43.53478         1.15008
C         36.73379        25.23551         0.02673
C         37.96428        27.38488        -0.08726
C         36.87026        26.68496        -0.42939
C         38.26040        28.75868        -0.64050
C         37.00551        29.55629        -0.91801
C         38.11042        31.65946        -0.24526
C         36.99206        30.92757        -0.82852
C         38.11007        33.04592        -0.13648
C         37.02171        33.86953        -0.72214
C         38.00244        35.91375         0.48300
C         36.94481        35.32744        -0.37617
C         37.88547        37.22463         0.91193
C         36.74691        38.03820         0.61372
C         36.65931        39.32730         1.07960
C         39.25272        29.52003         0.18821
C         40.29104        31.59678         0.96797
C         39.21863        30.88555         0.30344
C         40.27400        32.95087         1.07835
C         39.17297        33.73138         0.56424
C         39.11241        35.09606         0.83789
O         30.48836        27.35379         0.69867
O         24.10443        33.30677        -0.16719
O         16.83274        22.05988         2.01320
O         19.45194        22.09012         2.26092
O         25.86907        50.14871        -0.84105
O         35.33518        29.24200        -2.73208
O         27.01721        35.28846        -3.41554
O         19.52553        17.55751        -0.78198
O         25.11222        16.54920         2.43670
O         26.43023        28.81028        -2.49758
O         16.32832        42.16573        -2.99432
O         18.90651        39.67124        -3.16345
O         16.67385        34.66511        -2.38905
O         14.94424        46.80271        -2.22113
O         22.84297        53.62113         2.94397
O         31.57534        35.92815        -2.58782
O         22.85299        23.29829         1.99958
O         13.00252        24.12576        -1.16081
O         28.93408        23.10110         1.81023
O         37.46867        34.88598        -1.68483
O         33.74097        24.73589        -2.32068
O         25.05366        10.60799        -1.46315
O         26.83355        44.00484         1.34195
O         35.97433        32.53254        -2.49246
O         13.39739        38.21098         1.32771
O          8.44687        31.71651        -1.47359
O         29.37497        44.00630         2.27102
O         22.73832         9.55678         2.42243
O         16.56293        40.31330        -0.30670
O         24.50443        26.39058         1.29470
O         30.55934        20.62321         1.71859
O         19.48109        13.46909         2.61233
O         16.21282        31.18382        -1.91337
O         27.97777        40.11906        -2.39735
O         29.42633        39.43473         1.05355
O         27.32274        13.33383         2.26255
H         27.60401        14.10999         2.79652
O         23.11402        31.72043        -3.30801
H         23.93684        32.15000        -3.66357
O         30.01462        48.21817         3.54178
H         30.76657        48.57321         4.06177
O         28.81338        16.02637         2.26218
H         28.81842        16.95066         2.59293
O         10.94371        29.15918         2.55407
H         10.85561        30.11558         2.76710
O         14.01255        44.19978        -3.35132
H         14.69614        43.77091        -3.90949
O         23.23145        35.93367        -3.36802
H         24.10797        36.22212        -3.70706
O         23.25067        56.89363        -0.76491
H         24.04221        57.40134        -1.04608
O         37.98906        24.56691        -0.07403
H         38.29901        24.64650        -0.99974
O         31.63768        26.55147        -2.71880
H         32.35474        25.99352        -3.10342
O         11.12488        33.21673         2.36559
H         10.68649        34.03941         2.71398
O         21.98598        12.16788        -0.63921
H         24.85010         9.72023        -1.83258
O         38.89614        28.53242        -1.94647
H         39.00724        29.40657        -2.37709
O         31.79111        43.87309         3.13034
H         30.94326        43.57099         3.53358
O         30.65936        45.59135        -0.68910
H         30.31853        46.38889        -1.14931
O         21.09194        40.97520        -3.11411
H         20.42472        40.58658        -3.72855
O         20.71430        27.12081        -2.23325
H         19.92394        27.57773        -2.59440
O         34.39845        22.17319        -2.60283
H         34.33035        23.09871        -2.94791
O         13.76139        29.09193         2.32055
H         12.89537        28.91503         2.76398
O         16.51827        36.28938         0.92761
H         15.92745        36.88708         1.43547
O         24.32513        48.48199        -1.98012
H         24.65670        49.40589        -2.09837
O         27.01501        48.08353         2.43806
H         27.59072        48.06538         3.23342
O         20.27994        31.43257        -2.83386
H         21.05761        31.59154        -3.41928
O         36.02352        37.98706        -1.63929
H         35.44862        37.52888        -2.28869
O         33.43233        31.75392        -3.22201
H         34.34541        32.08385        -3.41522
O         20.05728        31.52206         0.81938
H         19.48647        31.05848         1.46643
O         19.37415         9.65211         3.28445
H         19.35860        10.57889         3.60634
O         31.44605        20.81319        -1.85333
H         32.18602        21.10764        -2.43175
O         19.61506        38.58222         0.27238
H         19.55690        37.74856         0.78482
O          9.75396        35.48415         2.39271
H         10.08006        36.37326         2.68859
O         10.66469        36.36713        -1.09449
H         10.44060        35.49481        -1.48381
O         20.10737         6.29520        -1.09551
H         20.20839         5.40468        -1.49268
O         28.76662        16.69341        -1.35778
H         29.38156        17.14825        -1.97045
O         16.76131        37.93226        -3.10444
H         17.54616        38.29351        -3.58050
O         28.79821        42.48208        -1.88005
H         28.48251        41.95460        -2.65342
O         33.34705        46.05387        -0.43077
H         32.56727        45.79282        -0.97531
O         20.52800        44.17706         1.10853
H         19.73800        44.66218         1.43046
O         25.58942        33.11985        -3.50913
H         26.09465        33.94396        -3.81564
O         23.16042        12.08443         2.89072
H         22.90012        11.23676         3.32326
O         14.76804        22.26805        -1.60208
H         14.23924        22.97241        -2.05098
O         12.41932        25.16939         2.28031
H         11.73271        25.64758         2.79185
O         23.46376        24.24019        -1.51331
H         23.22306        25.01036        -2.07191
O         34.00695        42.22219         3.14681
H         33.19443        42.75166         3.36351
O         17.09756        25.65486        -1.64695
H         16.96748        24.79708        -2.10270
O         24.54873         5.32696         2.19880
H         24.53102         6.24763         2.53855
O         27.85258        48.55317        -1.10494
H         27.52637        49.44047        -1.38963
O         31.48812        23.52958         1.74663
H         30.71178        23.65129         2.34254
O         21.01435        20.12427         2.72920
H         20.74591        20.95723         3.18386
O         24.38997        51.55016         3.18222
H         24.00626        52.25780         3.75110
O         23.40030        18.95537        -1.12054
H         22.52123        19.18444        -1.49102
O         21.63218         8.71383        -0.95707
H         21.14824         7.97434        -1.39677
O         25.96223        46.30440        -2.17586
H         25.47776        47.13788        -2.41410
O          7.12570        33.95405        -1.57027
H          7.51560        33.05518        -1.82000
O         12.49136        41.60750        -2.69526
H         12.45710        42.50642        -3.09378
O         23.16681        12.77168        -1.22543
H         23.72749        11.98179        -1.47037
O         26.50354        13.09953        -1.30704
H         26.13855        12.34929        -1.82815
O         31.15011        41.54288         2.83196
H         30.83354        40.62048         2.71988
O         11.16601        37.64401         2.30969
H         12.13218        37.72795         2.51140
O         29.47296        33.87847         0.39091
H         28.56537        34.12411         0.67237
O         36.17880        26.78597        -2.68575
H         35.79227        27.42540        -3.32869
O         20.56787        41.24323         0.49836
H         20.53144        42.06217         1.04628
O         17.26874        26.56735         1.87828
H         17.07345        27.40426         2.34900
O         19.07500        55.16420         3.05414
H         19.95229        55.33700         3.45877
H          5.17577        31.55406         1.09848
H          5.18874        33.96288         0.68002
H          7.50904        27.10703         0.75089
H          6.30158        29.32826         0.94787
H          6.46203        36.14394        -0.18577
H          7.62561        38.21841         0.28292
H          9.86189        22.75916         0.50593
H          8.68038        24.96727         0.47812
H          8.83563        40.32963         0.43067
H         10.15252        42.46932         0.37535
H         12.35432        18.44354         0.66634
H         11.12790        20.58326         0.66781
H         11.46288        44.50442        -0.01224
H         12.40799        46.34002        -0.05704
H         14.82042        14.18057         0.87194
H         13.59748        16.29151         0.71860
H         13.71154        48.63035         0.30993
H         14.78838        50.76464        -0.06783
H         17.22676         9.88467         1.30307
H         16.01895        12.05187         1.07245
H         15.98990        52.88160         0.24270
H         17.14388        54.92385         0.92155
H         19.61704         5.62368         0.83741
H         18.51849         7.66594         1.55751
H         18.41330        57.04741         0.92208
H         19.70995        59.10452         0.50133
H         22.96003         2.29771        -0.18325
H         20.81835         3.54034         0.07586
H         23.08932        62.47327         0.87614
H         20.94180        61.23466         0.63076
H         25.13701         3.39406         0.19092
H         26.41087         5.56628         0.01665
H         26.49354        59.11655         1.23968
H         25.23771        61.24605         1.13998
H         27.65968         7.69304        -0.20927
H         28.91240         9.79566        -0.23525
H         28.97741        54.86123         1.80859
H         27.73885        56.99216         1.56766
H         30.18847        11.90625        -0.27061
H         31.48610        13.98750        -0.28079
H         31.32886        50.45039         2.14083
H         30.19789        52.64005         1.93315
H         32.80631        16.09625        -0.30121
H         34.07625        18.18756        -0.35203
H         33.83081        46.19278         1.56715
H         32.55219        48.23011         2.15368
H         35.34440        20.30526        -0.68246
H         36.50173        22.54817        -0.32931
H         36.29291        41.85570         1.83961
H         35.02747        44.00749         0.86638
H         36.46649        25.24746         1.12333
H         38.73829        26.90630         0.53399
H         38.68036        37.65596         1.54058
H         37.49521        39.75718         1.65331
H         40.11165        28.96488         0.59548
H         41.12887        31.01190         1.37405
H         41.09344        33.47956         1.58661
H         39.92760        35.55274         1.41992
