         324
 CSIRO Nanostructure Databank - Neutral Graphene Oxide Data Set
C          1.16317         1.89551         0.04494
C          1.07345         3.26866         0.03571
C          2.38591         1.21959        -0.17174
C          2.18379         4.09119        -0.44762
C          1.10787         6.28191         0.15138
C          1.13803         7.68006         0.33516
C          2.23752         5.54408        -0.15380
C          2.30569         8.45067         0.18920
C          1.17882        10.57628         0.86138
C          1.23706        11.88078         1.23798
C          2.31694         9.85404         0.37129
C          2.51192        12.67389         1.31168
C          1.25613        14.92907         1.44042
C          1.30132        16.26518         1.51844
C          2.34248        14.11338         0.77370
C          2.47954        17.10056         1.06874
C          2.76072        18.18247         2.12809
C          3.58265         1.92555        -0.38466
C          3.52261         3.36591        -0.69541
C          4.84047         1.31880        -0.22531
C          4.78379         4.14804        -0.71986
C          3.54700         6.21835        -0.13348
C          3.59268         7.73156         0.00669
C          4.74873         5.53029        -0.64756
C          4.82926         8.44783        -0.38424
C          3.52202        10.64265         0.05041
C          3.67171        11.99593         0.58801
C          4.82235         9.91965        -0.37029
C          4.88282        12.64939         0.47781
C          3.66274        14.84372         0.85990
C          3.69139        16.20911         0.83840
C          4.92694        14.07464         0.89221
C          4.93961        16.86547         0.56770
C          3.86410        18.94912         2.31478
C          5.07851        18.82819         1.51826
C          6.05297         2.04773        -0.33328
C          6.04252         3.44986        -0.69808
C          7.27204         1.45976         0.03629
C          7.25738         4.14491        -0.83356
C          5.93975         6.32150        -0.97506
C          5.99800         7.77276        -0.68587
C          7.26181         5.56919        -1.18012
C          7.26691         8.46509        -0.80331
C          6.10925        10.61423        -0.22413
C          6.11663        11.98974         0.08928
C          7.30827         9.86100        -0.49437
C          7.37247        12.71464         0.14331
C          6.24372        14.82295         0.80320
C          6.16759        16.28255         0.61701
C          7.45376        14.09702         0.35291
C          7.38984        17.11139         0.43361
C          6.38179        19.01564         1.87777
C          7.50589        18.43535         1.13329
C          8.49132         2.17523        -0.02558
C          8.50867         3.51327        -0.57731
C          9.67341         1.62425         0.50182
C          9.73697         4.16250        -0.89077
C          8.53462         6.31744        -1.14212
C          8.49079         7.75342        -1.06377
C          9.74091         5.58753        -1.23618
C          9.71938         8.48937        -1.15845
C          8.55661        10.54858        -0.50138
C          8.61088        11.94470        -0.02711
C          9.72693         9.89748        -0.91106
C          9.93583        12.74403        -0.18812
C          8.66629        14.84624         0.14130
C          8.65791        16.33865         0.16713
C          9.86580        14.21253        -0.15797
C          9.94787        17.01901         0.36602
C          8.74538        19.01434         1.23760
C          9.96750        18.38559         0.78299
C         10.91400         2.24440         0.24781
C         10.93375         3.39396        -0.63477
C         12.12624         1.72161         0.75833
C         12.17293         3.66093        -1.23885
C         10.95390         6.35507        -1.49967
C         10.94177         7.78983        -1.42674
C         12.16531         5.76606        -1.90745
C         12.18227         8.50398        -1.54190
C         10.91063        10.70619        -1.28673
C         11.01299        12.11654        -0.93542
C         12.16531         9.97137        -1.71734
C         12.14797        12.92829        -1.39461
C         11.09500        14.95224        -0.39402
C         11.13724        16.35459         0.01232
C         12.21396        14.33862        -0.92778
C         12.37031        17.04547         0.05765
C         11.18628        19.06449         0.85196
C         12.41523        18.41782         0.51598
C         13.37615         2.24824         0.36461
C         13.39459         3.18094        -0.73201
C         14.61861         1.83226         0.90403
C         14.65671         3.66222        -1.19433
C         13.42636         6.43214        -1.78646
C         13.40840         7.83583        -1.54287
C         14.66244         5.77517        -1.90396
C         14.66456         8.52404        -1.16340
C         13.51060        10.67988        -1.92464
C         13.42722        12.21633        -1.79897
C         14.62785        10.02680        -1.11991
C         14.75610        12.93681        -1.73505
C         13.45197        15.12825        -1.13831
C         13.56195        16.42455        -0.43408
C         14.76253        14.43642        -1.53937
C         14.79736        17.04463        -0.28010
C         13.63697        19.07299         0.63229
C         14.92657        18.32212         0.52754
C         15.83861         2.39478         0.47546
C         15.83856         3.45150        -0.51234
C         17.07235         1.86226         0.92877
C         17.12318         4.07498        -0.98889
C         15.96868         6.40431        -1.65049
C         15.97421         7.82744        -1.23919
C         17.22676         5.55974        -1.35800
C         17.17997         8.47414        -1.01960
C         15.93666        10.73884        -0.96670
C         16.00089        12.17413        -1.40354
C         17.21876         9.94539        -0.82972
C         17.24549        12.90674        -0.92530
C         16.02927        15.08936        -1.14736
C         16.01213        16.37123        -0.63584
C         17.32184        14.35194        -1.47480
C         17.27491        17.05989        -0.24642
C         16.09729        19.16888         0.07626
C         17.28239        18.54706        -0.20323
C         18.31658         2.29642         0.44339
C         18.39328         3.40028        -0.56379
C         19.48823         1.71279         0.93050
C         19.72921         4.12628        -0.77058
C         18.44775         6.32241        -0.91672
C         18.44515         7.75887        -0.97362
C         19.64561         5.64383        -0.66403
C         19.67841         8.47699        -0.89686
C         18.51062        10.63818        -1.04110
C         18.49172        12.09379        -1.27869
C         19.70389         9.93464        -1.02095
C         19.80941        12.83887        -1.25686
C         18.58256        14.97573        -0.92465
C         18.56507        16.35030        -0.40921
C         19.76512        14.28887        -0.93753
C         19.81820        17.11661        -0.46584
C         18.55041        19.22032        -0.35388
C         19.75735        18.54670        -0.43794
C         20.77152         2.29666         0.69981
C         20.84519         3.56812         0.07555
C         21.94570         1.69022         1.20007
C         22.07363         4.25231         0.02034
C         20.88973         6.35350        -0.58576
C         20.90571         7.77581        -0.75445
C         22.11354         5.64057        -0.38337
C         22.17626         8.46901        -0.79576
C         20.97876        10.64754        -0.98894
C         21.02219        12.06363        -0.95217
C         22.20521         9.92189        -0.89315
C         22.21351        12.76989        -0.62725
C         21.00748        14.95181        -0.58436
C         21.02227        16.39764        -0.46409
C         22.17469        14.20560        -0.44267
C         22.26529        17.09930        -0.28378
C         21.04592        19.32636        -0.60001
C         22.29191        18.52785        -0.27687
C         23.20747         2.27929         0.98315
C         23.25775         3.56869         0.38379
C         24.41047         1.65962         1.47016
C         24.54316         4.15340        -0.00261
C         23.37470         6.32028        -0.41936
C         23.36799         7.74315        -0.66303
C         24.58481         5.59650        -0.28544
C         24.65790         8.42654        -0.86665
C         23.42334        10.64798        -0.81840
C         23.44596        12.04997        -0.58850
C         24.70289         9.93662        -0.95575
C         24.71659        12.73742        -0.45902
C         23.38624        14.89991         0.02995
C         23.44945        16.36952        -0.01099
C         24.71229        14.15095        -0.01977
C         24.66827        17.02966         0.24746
C         23.48901        19.18395        -0.05715
C         24.70526        18.47128         0.17522
C         25.66524         2.22565         1.29187
C         25.81252         3.39872         0.40089
C         26.83144         1.70654         1.92546
C         27.13494         4.10761         0.36660
C         25.87263         6.30274        -0.13600
C         25.90413         7.77682        -0.37142
C         27.18143         5.57563        -0.04886
C         27.21176         8.47714        -0.61521
C         25.98281        10.63654        -0.68038
C         25.93048        12.06548        -0.58033
C         27.19453         9.95896        -0.57328
C         27.21179        12.80137        -0.65885
C         25.94436        14.95326         0.02011
C         25.90874        16.29770         0.34629
C         27.20588        14.28965        -0.36550
C         27.12363        17.05203         0.88738
C         25.93078        19.15398         0.19538
C         27.17289        18.49336         0.41607
C         28.06967         2.35874         1.89080
C         28.23517         3.60831         1.19702
C         29.20622         1.81393         2.58404
C         29.41302         4.35949         1.32681
C         28.38728         6.35433         0.27905
C         28.46680         7.74971        -0.19508
C         29.50272         5.72538         0.83331
C         29.67812         8.53642         0.10866
C         28.45724        10.66439        -0.41588
C         28.47600        12.04848        -0.51515
C         29.69731         9.93313        -0.13945
C         29.75646        12.78368        -0.55699
C         28.47393        14.91903         0.11305
C         28.44621        16.29072         0.70304
C         29.77063        14.31920        -0.33373
C         29.74077        17.05646         0.75849
C         28.35815        19.18612         0.32868
C         29.67035        18.58578         0.61251
C         30.39371         2.48903         2.62430
C         30.52778         3.79058         2.03294
C         31.71878         4.51914         2.14003
C         30.73855         6.45718         1.00877
C         30.82049         7.85458         0.59505
C         31.81886         5.81931         1.62863
C         32.02937         8.58207         0.70652
C         30.92943        10.63970        -0.01051
C         30.99972        12.06997        -0.24799
C         32.08469         9.92317         0.38195
C         32.17013        12.80564        -0.10057
C         31.02491        14.97012         0.07334
C         31.00983        16.39435         0.39394
C         32.18747        14.21650         0.02273
C         32.14361        17.17524         0.25733
C         30.89349        19.27327         0.19718
C         32.08002        18.60023         0.15779
O         11.22415        10.40537        -2.73390
O         13.95804        15.15756        -2.51823
O          3.92267        10.51819        -1.36213
O         23.94826        14.29953         1.24218
O         25.26132         3.23749        -0.93051
O          7.90768        17.01398        -0.93231
O         28.47216        15.10067         1.57600
O         27.46471         4.51333        -0.99896
O          9.56483        12.09863         1.08156
O         12.17231         4.46101        -2.39575
O         12.55273        12.75634        -2.82968
O          4.85615        18.23633         0.25383
O         19.15990        12.46366        -2.51903
O         24.78893         9.07834        -2.15850
O         17.79117         3.11677        -1.87858
O         16.91233         5.97262        -2.71250
O          2.63793         3.72341        -1.79968
O         16.50526        10.49436         0.35842
O         27.21638        13.82427        -1.74126
O          5.73201        14.33987         2.09875
O         25.78355         7.29582         1.00315
O         29.79841        17.92004         1.92385
O          3.85472         6.85340         1.17688
O         28.05352         7.87795        -1.63322
O         15.65924        12.42947        -2.79443
O         14.31687         9.29817         0.08470
O         29.82094        13.75448        -1.66055
O         17.89074        16.44878         0.95107
O         14.68494         4.46787        -2.35909
O          6.43732         5.97575        -2.31759
O          2.85442        12.82182         2.71518
H          3.01157        11.93186         3.09282
O         17.45922        14.38854        -2.90522
H         16.80272        13.76442        -3.30055
O         15.25268        17.89107         1.90643
H         16.09348        17.38048         1.86524
O         17.17625        13.05244         0.50485
H         17.05077        12.15224         0.89678
O         20.16895         3.88453        -2.13783
H         19.36393         3.64901        -2.66006
O         13.87855        10.41332        -3.29620
H         13.24696        10.91921        -3.85706
O         21.01157        20.54275         0.15146
H         20.96027        20.31449         1.10216
O         26.89166        17.12414         2.31680
H         27.19650        16.27165         2.70045
O          1.99811        13.98509        -0.62780
H          1.82985        14.88323        -0.98388
O          2.12765        17.76149        -0.16861
H          2.92222        18.27353        -0.44579
H          0.28608         1.30422         0.34503
H          0.16307         3.75675         0.41035
H          2.42903         0.13125        -0.02284
H          0.12928         5.78336         0.19320
H          0.17997         8.18295         0.51983
H          0.21620        10.05201         0.94587
H          0.32263        12.36184         1.61428
H          0.35601        14.40345         1.79487
H          0.44647        16.80954         1.95124
H          1.92766        18.35446         2.83073
H          4.88863         0.25335         0.04544
H          3.87878        19.64692         3.16771
H          7.28052         0.42466         0.40789
H          6.61627        19.56341         2.80329
H          9.63646         0.67971         1.06279
H          8.83830        19.99088         1.73674
H         12.08836         0.88709         1.47257
H         11.21044        20.10825         1.19793
H         14.63767         1.03511         1.66073
H         13.66315        20.11886         0.97384
H         17.05332         1.04635         1.66608
H         16.04027        20.26506         0.15836
H         19.41298         0.83962         1.59524
H         18.56231        20.32048        -0.32968
H         21.87688         0.71860         1.71051
H         21.11665        19.63228        -1.68380
H         24.31506         0.74949         2.08100
H         23.51256        20.28341        -0.08200
H         26.73913         0.77444         2.50282
H         25.93990        20.23790         0.00517
H         29.10141         0.83822         3.07998
H         28.33781        20.24162         0.01524
H         31.25986         2.05935         3.14834
H         32.58222         4.07164         2.65263
H         32.77170         6.34850         1.76007
H         32.94995         8.08561         1.03846
H         33.04866        10.44083         0.46632
H         33.12746        12.28691         0.04208
H         33.15394        14.69196         0.24000
H         33.10877        16.69727         0.03958
H         30.83838        20.33716        -0.07434
H         33.00451        19.13929        -0.09302
