         268
 CSIRO Nanostructure Databank - Neutral Graphene Oxide Data Set
C        -10.86353         0.60800         1.20877
C        -10.07019         1.55600         0.31114
C         -8.90646         0.77528        -0.36340
C         -7.61185         1.54028        -0.41335
C         -6.33367         0.77971        -0.47880
C         -5.04100         1.45064        -0.80801
C         -3.80935         0.62477        -0.70017
C         -2.54049         1.34332        -0.37776
C         -1.32245         0.84134        -1.13645
C          0.00192         1.50284        -0.74244
C          1.28111         0.75327        -0.56498
C          2.46686         1.45184         0.06370
C          3.74361         0.70171         0.28161
C          5.05232         1.43546         0.46943
C          6.33443         0.66862         0.30363
C          7.58311         1.38609        -0.06230
C          8.75841         0.72539        -0.34317
C         10.01337         1.45525        -0.43754
C         11.23044         0.67505        -0.24631
C         -9.38421         2.63509         1.19743
C         -9.06344         3.88115         0.86591
C         -7.58638         2.92150        -1.00491
C         -6.34319         3.70956        -0.66353
C         -5.03863         2.93106        -0.57864
C         -3.86162         3.54853         0.12530
C         -2.56921         2.76666         0.10253
C         -1.27897         3.53822         0.31905
C         -0.00617         2.86875        -0.10586
C          1.25174         3.65451        -0.31275
C          2.54217         2.93264        -0.08151
C          3.71405         3.59852         0.08416
C          5.05707         2.97589         0.41758
C          6.18659         3.54282        -0.45799
C          7.49735         2.82051        -0.43553
C          8.76284         3.59310        -0.52326
C          9.99429         2.84233        -0.48637
C         -8.82481         5.18387         0.80124
C         -7.76544         5.91185        -0.05802
C         -6.42357         5.14064        -0.21234
C         -5.23480         5.78407         0.52801
C         -3.90707         4.99761         0.51696
C         -2.63036         5.84909         0.71727
C         -1.30862         5.03635         0.62959
C         -0.04337         5.81540         0.39873
C          1.18855         5.12318        -0.11432
C          2.46303         5.83769         0.20052
C          3.73928         5.07747         0.24058
C          5.04908         5.79328         0.04109
C          6.16584         5.06988        -0.73277
C          7.50993         5.76657        -0.51882
C          8.72598         4.97719        -0.50749
C         -7.50374         7.34088         0.41416
C         -6.31512         7.99394         0.25411
C         -5.13505         7.15162        -0.12144
C         -3.85564         7.67936        -0.64154
C         -2.49997         7.03291        -0.35911
C         -1.35894         8.02938         0.05317
C         -0.03770         7.32923         0.30392
C          1.21526         8.03077         0.00091
C          2.44627         7.27255        -0.21540
C          3.74207         7.98101        -0.45710
C          5.03152         7.26046        -0.16991
C          6.25393         7.94700        -0.77411
C          7.51387         7.13627        -0.51206
C         -6.13291         9.35499         0.76532
C         -5.00791        10.12713         0.82221
C         -3.73876         9.84043         0.16223
C         -2.46612        10.19856         0.46358
C         -1.31795         9.54459        -0.32394
C          0.02182        10.16773         0.01877
C          1.25080         9.46688        -0.03737
C          2.49623        10.15203        -0.12055
C          3.78364         9.50644        -0.58355
C          5.09186        10.02423        -0.00008
C          6.24195         9.35015        -0.18773
C        -10.88296        -0.73241         1.11199
C        -10.23163        -1.44407        -0.07047
C         -8.89367        -0.72280        -0.33981
C         -7.60127        -1.45186        -0.07025
C         -6.31942        -0.71976        -0.34108
C         -5.18604        -1.41200        -1.08301
C         -3.83978        -0.71787        -0.91812
C         -2.59173        -1.48192        -1.23727
C         -1.29013        -0.71777        -1.24755
C         -0.05372        -1.46932        -0.81959
C          1.19559        -0.73701        -0.42082
C          2.51371        -1.44569        -0.44508
C          3.78939        -0.71851        -0.20640
C          5.01296        -1.55837         0.05447
C          6.32442        -0.83269         0.16374
C          7.55565        -1.51895        -0.31182
C          8.79343        -0.73334        -0.55987
C         10.08401        -1.53320        -0.36043
C         11.26544        -0.67911        -0.09576
C        -10.10621        -2.96120        -0.05401
C         -8.93146        -3.67242        -0.20189
C         -7.64060        -2.97387         0.15050
C         -6.41754        -3.67675        -0.41208
C         -5.18239        -2.92906        -0.82183
C         -3.84103        -3.52202        -0.36455
C         -2.68358        -3.03179        -1.25413
C         -1.32607        -3.72959        -0.97690
C         -0.02080        -2.97113        -1.00821
C          1.25121        -3.66363        -0.55846
C          2.50964        -2.93736        -0.25713
C          3.44717        -3.49096         0.82253
C          4.86752        -2.94330         0.60346
C          5.86004        -3.59928         1.54608
C          7.71224        -2.93249        -0.86862
C          8.76974        -3.67352        -0.09003
C          9.95003        -2.94248         0.08408
C         -8.85607        -5.09545        -0.35404
C         -7.65040        -5.85620        -0.27731
C         -6.32779        -5.15858        -0.03377
C         -5.10235        -5.81222        -0.76040
C         -3.88667        -5.06136        -0.22572
C         -2.60879        -5.80447        -0.06617
C         -1.31253        -5.00685        -0.10520
C         -0.09241        -5.88317        -0.33520
C          1.18536        -5.12709        -0.25365
C          2.22962        -5.83055         0.60159
C          3.50556        -5.03294         0.94007
C          4.79324        -5.78550         1.20402
C          6.18156        -5.10996         1.39947
C          7.29013        -5.71654         0.51457
C          8.54542        -5.03771         0.24615
C         -7.62453        -7.24489        -0.29179
C         -6.36033        -8.02728        -0.26041
C         -5.05069        -7.32625        -0.50178
C         -3.77364        -7.98259        -0.09246
C         -2.58781        -7.29563        -0.08074
C         -1.35630        -7.93766         0.53638
C         -0.06787        -7.30847         0.09451
C          1.11119        -7.99105         0.08713
C          2.41823        -7.21157        -0.13125
C          3.60249        -7.99115         0.44603
C          4.79303        -7.29480         1.02266
C          6.16258        -7.97651         1.03479
C          7.21581        -7.09067         0.36895
C         -6.28602        -9.36918         0.36024
C         -5.10144       -10.01457         0.51288
C         -3.80508        -9.39800         0.27015
C         -2.62194       -10.09253         0.47203
C         -1.33324        -9.44454         0.42489
C         -0.13129       -10.11930         0.40079
C          1.15648        -9.44263         0.27323
C          2.35874       -10.11079         0.21563
C          3.65736        -9.39491        -0.15977
C          4.96695       -10.06776         0.19219
C          6.08279        -9.40475         0.52977
O         -7.13796        -5.73827         2.15458
H         -7.62537        -4.87544         2.27539
O          5.79228         0.99343         1.64215
O         -0.85346         7.90876         1.39664
O         -2.54934         1.62335         1.03948
O         -2.06242         6.40878        -1.58285
H         -2.80847         6.40978        -2.22487
O         -6.13290         4.83090        -1.58623
O         -9.01754         0.01896        -1.60801
O        -11.13572        -1.23260        -1.18146
H        -10.73499        -0.53932        -1.76094
O         -1.46407        -7.59656         1.96725
H         -2.30820        -7.97223         2.29821
O         -3.07218        -3.39631        -2.58466
H         -2.31440        -3.18510        -3.17742
O          6.56739         2.80811        -1.63083
O          3.77708        -7.94172         1.87280
O          5.33934         6.70554         1.14494
O          2.38005        -3.58135        -1.53023
O          9.52394        -1.22370        -1.70103
O         -5.10368        -5.65222        -2.17455
H         -5.55234        -6.44016        -2.56168
O          6.04873        -3.09724         2.64058
H          6.55245        -4.66737         3.28667
O          0.94867         1.34368        -1.85038
O          3.04703         5.50671         1.48257
O         -0.41998         5.35016         1.73500
O         -1.59342         1.35757        -2.45518
H         -0.83900         1.12260        -3.03933
O          3.92914        -5.36629         2.30505
O         -1.11619        -4.47236         1.23506
H         -1.11850        -5.23243         1.86211
O         -0.42620         2.83452         1.28048
O          2.92821        -2.97236         2.04961
H          3.27104        -3.52630         2.78777
O         -8.36519         6.07268        -1.35109
H         -8.26603         5.22406        -1.84960
O          5.11650        -2.74431        -0.79596
O          3.02916         7.39654        -1.58299
O         -6.07202        -3.51791        -1.80947
O         -4.09462         3.94232         1.51654
O         -6.70534        -0.99199         1.02249
O         -8.45304         3.32828        -1.76877
O         -1.45673         9.73830        -1.73703
H         -2.40962         9.64415        -1.97150
O         -4.85039         2.37479        -1.92690
O          7.24118        -1.46664         1.11552
O          7.24014        -3.36179        -1.89140
O         -6.80542         1.42437         0.77995
O         -3.86543         9.04998        -1.00373
O         -5.54675        -1.20353        -2.47053
H         -5.04110        -1.84523        -3.01672
O          3.69462        -9.32019        -1.59802
H          3.22013        -8.48431        -1.89100
O          1.16630         4.56592        -1.46034
O          3.30693        -0.93633        -1.56678
O         -1.90724        -1.10120        -2.49357
O         -4.72216         6.98046        -1.54090
O          5.85289         5.30081        -2.08822
O        -10.92114         2.13994        -0.66211
H        -10.37148         2.71531        -1.24186
O          3.85782         9.82030        -2.00595
H          4.55214         9.22125        -2.38671
O         -5.69892        -8.04148        -1.60867
O         -0.53777        -3.62846        -2.19474
O          6.62107        -5.48388         2.72483
O         -3.64939        -2.93771         0.93443
H         -3.26667        -3.64157         1.51894
O         -3.46147        -5.43358         1.10638
O          0.25704        -1.17545         0.59646
O          0.75645        -5.73973        -1.51076
O         -7.60418        -3.16798         1.59774
O          2.81009         0.92995         1.38679
O          2.68424        -6.99098        -1.47088
O          1.57979        -6.07533         1.85398
H          2.26750        -6.41718         2.47592
O         -2.78220         6.40009         2.01818
H         -1.89099         6.40460         2.44651
O          5.39393         3.46605         1.73174
H          4.77420         3.07830         2.38535
O         -5.61076         5.97694         1.89945
H         -5.17477         5.27772         2.43682
O          6.04923         7.99576        -2.20712
H          5.95973         7.02933        -2.48032
O         -5.97411        -5.30628         1.40579
H         -6.90264        -2.57397         1.95778
O          6.61936        -8.13707         2.39984
H          6.61375        -7.24795         2.83399
H         12.21549        -1.17020         0.16358
H         12.16620         1.24146        -0.12227
H         10.94481         3.39756        -0.49457
H          9.68148         5.52708        -0.51587
H          8.47036         7.67801        -0.42480
H          7.19320         9.78615         0.15701
H          5.10931        11.03326         0.44038
H          2.46890        11.25371        -0.11453
H          0.05373        11.26871         0.01676
H         -2.23878        10.80702         1.34942
H         -5.06094        11.05983         1.40518
H         -7.02487         9.76294         1.26967
H         -8.37950         7.90259         0.77824
H         -9.61484         5.85261         1.19494
H         -8.96762         2.24568         2.14679
H        -11.44129         1.08871         2.01410
H        -11.49657        -1.31724         1.81450
H        -11.06228        -3.49734        -0.16739
H         -9.79677        -5.64529        -0.51849
H         -8.56986        -7.80719        -0.35674
H         -7.22501        -9.86421         0.64856
H         -5.09774       -11.03812         0.91782
H         -2.66247       -11.17631         0.66433
H         -0.13475       -11.22124         0.39650
H          2.37137       -11.20923         0.30063
H          5.04027       -11.13920        -0.05380
H          7.01729        -9.97635         0.64799
H          8.06136        -7.60303        -0.11849
H          9.43979        -5.68378         0.29835
H         10.78302        -3.37782         0.65870
