         261
 CSIRO Nanostructure Databank - Neutral Graphene Oxide Data Set
C        -11.19851         1.02544         0.00360
C        -10.29751         1.65033         0.99341
C         -9.18671         0.83402         1.61115
C         -7.94972         1.55911         2.12902
C         -6.59091         0.81295         2.26535
C         -5.25268         1.54574         2.37016
C         -3.89295         0.77104         2.73229
C         -2.55581         1.58557         2.52663
C         -1.23172         0.86656         2.41419
C          0.07384         1.66273         2.34571
C          1.38355         0.94006         2.34915
C          2.70773         1.67992         2.33106
C          3.99494         0.90802         2.25617
C          5.31289         1.62350         2.06016
C          6.55576         0.81255         1.83550
C          7.77151         1.45211         1.20792
C          8.98508         0.64706         0.89028
C          9.97320         1.25614        -0.10669
C         11.30057         0.53866        -0.00913
C        -10.14518         3.12521         0.90322
C         -8.93915         3.71284         0.88050
C         -7.65469         2.89114         0.87037
C         -6.43805         3.68094         1.38929
C         -5.20195         3.01326         1.93525
C         -3.84395         3.54184         1.48601
C         -2.57355         3.07817         2.17263
C         -1.28608         3.81517         1.85621
C          0.03673         3.03285         1.67881
C          1.33597         3.85860         1.82690
C          2.68859         3.16950         2.06607
C          3.97647         3.83739         1.64292
C          5.29586         3.09141         1.68131
C          6.51552         3.66520         1.04856
C          7.59935         2.77425         0.48564
C          8.91610         3.50465         0.28122
C         10.06110         2.75666         0.08921
C         -8.82781         5.22865         0.83061
C         -7.57825         5.61215         0.08184
C         -6.33997         4.98744         0.63551
C         -5.02506         5.38126         0.08512
C         -3.77067         4.65446         0.48276
C         -2.59559         5.63798         0.40511
C         -1.30171         5.12821         1.06999
C         -0.00047         5.74839         0.63230
C          1.33207         5.18851         1.12163
C          2.57444         5.57136         0.34094
C          3.93209         5.10955         0.81845
C          5.13519         5.54275         0.03253
C          6.39385         4.71116        -0.02229
C          7.63343         5.57912        -0.11425
C          8.87060         4.92083         0.13189
C         -7.51533         6.60558        -0.83216
C         -6.26783         6.87098        -1.59868
C         -5.01607         6.16315        -1.18933
C         -3.68011         6.51191        -1.77903
C         -2.43119         6.12457        -1.05359
C         -1.10583         6.71493        -1.52960
C         -0.01778         6.79405        -0.46665
C          1.25647         7.39050        -0.96028
C          2.51034         6.60353        -0.75032
C          3.74831         7.09522        -1.47096
C          5.06953         6.53120        -1.09588
C          6.32276         7.41301        -1.29533
C          7.52856         6.88688        -0.54662
C         -6.07649         8.11727        -2.37729
C         -4.88853         8.43409        -2.91771
C         -3.67549         7.51209        -2.93863
C         -2.40489         8.32039        -2.97907
C         -1.22350         7.97660        -2.35889
C         -0.04336         8.73654        -2.60228
C          1.22868         8.36663        -2.09007
C          2.39572         9.01829        -2.43661
C          3.77235         8.46705        -2.16417
C          4.74159         9.34834        -1.38334
C          5.91697         8.85031        -0.96565
C        -11.13764        -0.27980        -0.30691
C        -10.17389        -1.21096         0.31415
C         -9.10534        -0.64051         1.29505
C         -7.79823        -1.38219         1.49637
C         -6.55050        -0.68586         1.98640
C         -5.18160        -1.38237         1.83638
C         -3.87279        -0.69968         2.20747
C         -2.51788        -1.36092         1.87447
C         -1.19079        -0.61483         2.10394
C          0.10667        -1.18901         1.57695
C          1.38597        -0.38572         1.63151
C          2.68450        -1.05538         1.27196
C          3.94272        -0.58627         1.97163
C          5.20056        -1.41400         1.91676
C          6.54179        -0.70057         1.97487
C          7.80191        -1.48855         1.74739
C          8.92823        -0.85937         0.95603
C         10.16279        -1.61528         0.50621
C         11.37021        -0.77775         0.25058
C         -9.85135        -2.41302        -0.41171
C         -8.88368        -3.36699         0.09796
C         -7.73789        -2.79626         0.94603
C         -6.39993        -3.49630         0.90978
C         -5.14389        -2.63168         0.96272
C         -3.81532        -3.21239         0.56302
C         -2.50801        -2.61927         1.05198
C         -1.25328        -2.98002         0.26920
C          0.05411        -2.28823         0.53306
C          1.35071        -2.96135         0.08668
C          2.66914        -2.39052         0.53679
C          3.87823        -3.28762         0.62569
C          5.14441        -2.80152         1.26654
C          6.45945        -3.46292         0.88785
C          7.59338        -3.00024         1.78200
C          9.64469        -4.01681         0.30393
C         10.38703        -3.05709         0.83723
C         -8.72953        -4.64001        -0.71141
C         -7.51791        -5.48714        -0.38945
C         -6.33357        -4.85248         0.25836
C         -4.97857        -5.44979        -0.05205
C         -3.72194        -4.67574         0.20748
C         -2.38724        -5.22567        -0.25997
C         -1.23941        -4.29573        -0.50217
C          0.04130        -4.90505        -1.01821
C          1.30801        -4.40921        -0.36168
C          2.59435        -5.15918        -0.54843
C          3.91494        -4.46116        -0.31964
C          5.18616        -5.23399        -0.50711
C          6.49937        -4.70130         0.03949
C          7.70997        -5.67415         0.13943
C          8.99475        -4.97089        -0.32720
C         -7.47003        -6.76249        -0.85139
C         -6.18160        -7.42201        -1.20504
C         -4.92756        -6.63071        -0.97609
C         -3.60381        -7.29635        -1.20289
C         -2.33996        -6.63549        -0.75503
C         -1.14793        -7.18418        -1.47459
C          0.05452        -6.32154        -1.58071
C          1.36309        -6.95281        -1.96636
C          2.64370        -6.29724        -1.53685
C          3.92281        -7.07797        -1.66747
C          5.02252        -6.75846        -0.63727
C          6.31439        -7.48112        -0.98020
C          7.51312        -6.94205        -0.66622
C         -6.03039        -8.88276        -1.38429
C         -4.83614        -9.50846        -1.50225
C         -3.53505        -8.79976        -1.56446
C         -2.25599        -9.45604        -1.34265
C         -0.96067        -8.70753        -1.40410
C          0.04587        -9.13686        -2.54494
C          1.36858        -8.39637        -2.34324
C          2.53895        -9.07038        -2.47116
C          3.86684        -8.47898        -2.20581
C          5.03268        -9.35774        -1.95073
C          6.19350        -8.84929        -1.48146
O         -0.76449        -4.04821        -1.85643
O          6.80134        -3.38683        -0.52470
O          6.30960         3.88709         2.42935
O          4.38729         6.05889        -2.28739
O         -4.25415        -5.60744         1.19312
O         -0.61057         5.59742        -2.41855
O          2.18840        -2.19562        -0.82349
O         -2.41198        -2.68530         2.48709
O         -4.58087        -2.39136        -0.37314
O          2.07747        -0.06711         0.38055
O         -7.39774         2.20853        -0.22006
O         -2.98689         5.24646        -2.06333
O          4.66325        -4.37893        -1.56364
O          2.07664        -6.01150        -2.84189
O          3.42652         1.28933         3.53693
O          2.30300         5.17272        -1.04455
O          3.46330         3.95753         2.99986
O          0.49184         8.02954         0.12668
O         -5.55555         6.05286         1.27389
O         -7.40630        -1.40691         2.91429
O          8.91952         1.40087         2.11975
O         -3.46311        -7.73047        -2.57241
O         -0.32325        -1.44677         2.93606
O         -0.88302        -6.49104        -2.71591
O         -5.84311         5.61982        -2.27633
O          0.74304         1.32253         3.59064
O         -1.92526         3.92624         3.15026
O          7.46578        -1.02543         3.07443
O          4.37441        -1.37120         3.11222
O          1.32055         5.10481         2.56023
O         -0.80682        -1.87672        -0.57293
O         -1.77223         1.27070         3.69753
O         -4.58502        -1.57283         3.13870
O         -6.07587         1.25870         3.53834
O          4.82712         6.15170         1.31948
O          4.29074        -7.30642        -3.02914
O          8.14109        -3.69177         2.61700
O         -0.72345         6.23217         1.81585
O          4.23389        -3.68308         1.98201
O          1.77268        -5.37485         0.63732
O        -10.38449         1.14871         2.36738
O        -10.23637        -1.36724         1.78138
O          7.00770         2.54073        -0.84952
O         -6.07479         3.82462         2.79064
O         -6.44484        -4.69235         1.71799
O          6.33726         3.83824        -1.21942
O         -2.03875        -6.36647         0.63340
O          9.03812        -1.39959        -0.39326
O         -5.61446        -6.51536        -2.25096
O          6.24091         1.38693         3.14561
O         -3.63736         3.29407         0.02788
O          4.52386        -7.23418         0.57717
O         -8.79995        -3.59174         1.53058
O         -8.27364         2.22257         3.27403
H         -7.44857         2.35807         3.80879
O          9.42014         1.05464        -1.43154
H         10.11458         1.23971        -2.09632
O         -3.75756         6.75694        -4.17537
H         -4.40012         6.02850        -4.02010
O          0.01656         2.62765         0.27225
H          0.11102         3.40263        -0.32330
O          0.51085         6.06683        -3.19992
H          0.16858         5.98545        -4.12387
O          4.34521         8.29065        -3.49454
H          4.01078         7.43372        -3.84269
O         -3.03828         6.80025         1.12784
H         -2.30508         7.08615         1.72669
O         -8.60921        -4.24034        -2.08551
H         -8.36871        -5.02026        -2.62801
O         -0.49547        -8.89741        -3.82277
H         -0.60619        -7.92386        -3.93913
O         -8.76220         5.75901         2.16102
H         -7.88173         5.56068         2.54490
O          6.74654         7.38399        -2.67175
H          6.00493         7.76242        -3.21316
O          7.84853        -6.13251         1.48799
H          8.06943        -5.37568         2.08467
O         -0.23208        -8.99390        -0.18552
H         -0.77713        -8.73448         0.58779
O         -3.93001         0.64730         4.14932
H         -4.49561        -0.12047         4.38953
H         12.34959        -1.27714         0.30054
H         12.22261         1.11356        -0.18842
H         11.01250         3.26888        -0.12767
H          9.81139         5.47929         0.01293
H          8.44636         7.49132        -0.62473
H          6.63296         9.49522        -0.43364
H          4.47446        10.39791        -1.19033
H          2.34646         9.82540        -3.18389
H         -0.10478         9.58298        -3.30282
H         -2.41213         9.22096        -3.61370
H         -4.79262         9.37189        -3.48646
H         -6.92715         8.81066        -2.46122
H         -8.42821         7.14576        -1.12706
H         -9.73894         5.65790         0.34546
H        -11.06414         3.73306         0.87305
H        -11.90218         1.68283        -0.52786
H        -11.79002        -0.69175        -1.09072
H        -10.19477        -2.52870        -1.44880
H         -9.66464        -5.25741        -0.58289
H         -8.38363        -7.20275        -1.28653
H         -6.94715        -9.48896        -1.33048
H         -4.81225       -10.60727        -1.55274
H         -2.23813       -10.47342        -0.92521
H          0.22589       -10.23665        -2.44799
H          2.50892       -10.14919        -2.69477
H          4.96096       -10.41573        -2.24372
H          7.07978        -9.49689        -1.39827
H          8.42612        -7.52972        -0.85602
H          9.41318        -5.31938        -1.28979
H         11.20624        -3.30656         1.53368
