         430
 CSIRO Nanostructure Databank - Neutral Graphene Oxide Data Set
C         27.93218        27.41647         0.80915
C         27.87806        28.80550         0.71502
C         26.65105        29.55555         0.78292
C         27.76014        31.66440         0.00338
C         26.58176        30.89227         0.53588
C         27.80637        33.14860         0.31254
C         26.75965        33.83630         0.85870
C         27.90994        36.00486         0.70061
C         26.77062        35.25876         0.97993
C         27.92016        37.44703         0.78735
C         26.69208        38.20329         0.70145
C         27.93399        40.29386         1.21877
C         26.68498        39.55404         0.81429
C         27.93708        41.76348         0.87360
C         26.75882        42.51046         1.04944
C         27.94497        44.56619         0.53268
C         26.74836        43.88301         0.85535
C         27.96159        45.99343         0.44740
C         30.38371        27.38392         0.50862
C         29.15152        26.72551         0.74924
C         30.39797        28.80869         0.39063
C         29.14472        29.55093         0.64364
C         30.30612        31.74603        -0.03069
C         29.08198        31.03047         0.40444
C         30.32199        33.11936        -0.11034
C         29.01880        33.90171        -0.21576
C         30.34156        35.96242         0.32238
C         29.12906        35.31275         0.31750
C         30.43566        37.37302         0.85834
C         29.14743        38.15012         0.76926
C         30.37750        40.27494         0.48015
C         29.17935        39.55479         0.79566
C         30.34687        41.66326         0.28782
C         29.13611        42.41244         0.49384
C         30.38595        44.55108         0.12681
C         29.14967        43.83725         0.34658
C         30.38366        45.97839         0.14696
C         29.13991        46.67076         0.27748
C         32.88781        24.54389         0.29023
C         31.70907        25.24744         0.46829
C         32.77988        27.37505        -0.10147
C         31.61770        26.66214         0.29473
C         32.78576        28.79106        -0.20826
C         31.56018        29.49469         0.00775
C         32.83350        31.70055        -0.40546
C         31.50870        30.94138        -0.29530
C         32.80921        33.15001        -0.17220
C         31.57705        33.84897        -0.14835
C         32.81293        35.97040         0.09015
C         31.57742        35.26227         0.05537
C         32.83518        37.40635         0.14195
C         31.62756        38.13951         0.33898
C         32.83361        40.26225        -0.01467
C         31.60923        39.53079         0.25819
C         32.82115        41.63794        -0.18214
C         31.51489        42.35944        -0.36966
C         32.83163        44.53340        -0.18158
C         31.59708        43.84239        -0.07583
C         32.84658        45.97119        -0.10375
C         31.62410        46.68857         0.02372
C         32.85461        48.79522        -0.07518
C         31.66855        48.11325         0.04045
C         35.41093        23.06908        -0.34093
C         35.32316        24.50155        -0.31486
C         34.07327        25.17383        -0.16316
C         35.31111        27.38835        -0.61271
C         33.97938        26.60544        -0.46737
C         35.27825        28.82772        -0.34647
C         34.04319        29.52395        -0.31564
C         35.28710        31.64258         0.01988
C         34.07418        30.94147        -0.20707
C         35.28243        33.09967         0.09403
C         34.04358        33.82771        -0.00678
C         35.28474        35.96029         0.04986
C         34.04595        35.25275         0.04405
C         35.29816        37.38240        -0.00212
C         34.06672        38.10990         0.01175
C         35.31736        40.23211        -0.14702
C         34.08132        39.52950        -0.06056
C         35.34226        41.65403        -0.26412
C         34.06430        42.35838        -0.64242
C         35.29500        44.52500        -0.34148
C         34.07209        43.83525        -0.33615
C         35.31556        45.96190        -0.30692
C         34.08324        46.68074        -0.20865
C         35.33363        48.81714        -0.34365
C         34.09366        48.10777        -0.20600
C         35.37973        50.23996        -0.38130
C         37.85079        23.06805        -0.64251
C         36.59738        22.39762        -0.55733
C         37.86870        24.52437        -0.21992
C         36.54497        25.24816        -0.40529
C         37.78473        27.39695        -0.30601
C         36.55686        26.63905        -0.42030
C         37.74798        28.79369        -0.21614
C         36.50761        29.51426        -0.16718
C         37.76544        31.59344         0.39654
C         36.49953        30.91584         0.06697
C         37.75232        33.11533         0.48447
C         36.48397        33.81459         0.21882
C         37.75348        35.93940         0.10447
C         36.51169        35.23739         0.11527
C         37.76337        37.35716         0.01423
C         36.53572        38.08347        -0.02582
C         37.78872        40.21032        -0.07904
C         36.54966        39.50800        -0.08747
C         37.79769        41.64896        -0.10948
C         36.55612        42.35677        -0.21851
C         37.75683        44.51882        -0.33033
C         36.55804        43.81356        -0.32398
C         37.78570        45.94851        -0.45542
C         36.54635        46.66532        -0.41190
C         37.79592        48.79419        -0.59808
C         36.55717        48.09605        -0.45046
C         37.80454        50.21937        -0.66268
C         36.56638        50.91318        -0.53837
C         40.34083        20.37412        -1.34916
C         39.14565        21.01011        -1.17154
C         40.32271        23.17357        -0.90285
C         39.06944        22.42472        -0.91711
C         40.32029        24.56707        -0.75270
C         39.00437        25.29042        -0.89821
C         40.25736        27.36311        -0.18284
C         39.04508        26.71217        -0.41087
C         40.19577        28.79581         0.32115
C         39.05582        29.52516        -0.39357
C         40.23166        31.65325         0.09444
C         39.04711        30.96257         0.05298
C         40.25088        33.09614         0.25602
C         39.02652        33.81890         0.28943
C         40.23253        35.93692         0.07885
C         39.00053        35.22348         0.15608
C         40.24301        37.35182        -0.00880
C         39.00038        38.07498        -0.00255
C         40.29987        40.20298         0.23255
C         39.00429        39.48205        -0.01926
C         40.26397        41.64839        -0.17363
C         39.04277        42.34241        -0.15682
C         40.25535        44.52089        -0.59264
C         39.05538        43.83982         0.01295
C         40.26725        45.90170        -0.74173
C         39.01844        46.63982        -0.60066
C         40.25207        48.76903        -0.87673
C         39.02484        48.06278        -0.69017
C         40.24055        50.18254        -0.97839
C         39.04071        50.91636        -0.86722
C         40.26511        53.04857        -1.00025
C         39.08412        52.35981        -0.93664
C         42.81231        20.44579        -1.52941
C         41.58931        21.09072        -1.29913
C         42.80202        23.23315        -1.04673
C         41.57289        22.49583        -1.05767
C         42.77145        24.63750        -0.81970
C         41.53751        25.29571        -0.65155
C         42.74190        27.38049        -0.03592
C         41.50314        26.71821        -0.35307
C         42.70967        28.77020         0.60422
C         41.49686        29.50361         0.15202
C         42.77681        31.66559         0.16988
C         41.52637        30.93921        -0.28245
C         42.75679        33.08430         0.24061
C         41.48215        33.80298         0.22426
C         42.68954        35.95054         0.07643
C         41.46324        35.22043         0.16498
C         42.69621        37.29750        -0.24471
C         41.47744        38.04495        -0.20545
C         42.74301        40.16311        -0.40614
C         41.51851        39.45895        -0.23753
C         42.72846        41.60408        -0.48012
C         41.49161        42.30303        -0.44631
C         42.79917        44.46841        -0.93243
C         41.44658        43.71357        -0.84645
C         42.77356        45.93098        -0.85140
C         41.51427        46.63059        -0.92820
C         42.74441        48.77828        -0.95412
C         41.50250        48.04382        -0.95530
C         42.76120        50.16439        -0.97793
C         41.50549        50.89447        -1.38816
C         42.72551        53.01824        -0.93644
C         41.51772        52.36339        -1.06787
C         44.01241        21.16989        -1.51708
C         45.34626        23.30507        -1.31123
C         44.03540        22.53956        -1.26101
C         45.27792        24.66979        -0.66892
C         44.03704        25.46724        -0.94959
C         45.14087        27.32039         0.56361
C         43.94665        26.74478        -0.15610
C         45.20187        28.83230         0.43641
C         44.00892        29.52107         0.38599
C         45.23090        31.67080         0.41475
C         43.99191        30.96334         0.30856
C         45.21027        33.09804         0.43317
C         43.96853        33.78754         0.36542
C         45.19027        35.99110         0.21070
C         43.92538        35.27854         0.59949
C         45.21075        37.26404        -0.26608
C         43.95214        37.95970        -0.75547
C         45.18970        40.17618        -0.61355
C         43.97608        39.46547        -0.55409
C         45.20909        41.59350        -0.49406
C         43.97794        42.31373        -0.54299
C         45.21561        44.45558        -0.34933
C         44.01075        43.73457        -0.58465
C         45.21399        45.89045        -0.46103
C         43.99850        46.59251        -0.73060
C         45.24267        48.77812        -0.56405
C         44.05350        48.04274        -1.11784
C         45.22046        50.18460        -0.51270
C         43.98474        50.91127        -0.81240
C         43.94689        52.30249        -0.85077
C         47.64199        23.14030        -0.36510
C         46.52485        22.51690        -0.81087
C         47.70205        24.56894        -0.18308
C         46.44767        25.31031        -0.20703
C         47.67119        27.30762         0.78357
C         46.43819        26.65340         0.22534
C         47.68249        28.81190         0.60026
C         46.47354        29.51818         0.49592
C         47.68898        31.67915         0.67643
C         46.47513        30.96693         0.52304
C         47.66718        33.11481         0.71571
C         46.44211        33.80805         0.60269
C         47.73408        36.01147         0.48355
C         46.41868        35.27990         0.63983
C         47.73698        37.30445        -0.18817
C         46.49114        37.95071        -0.56740
C         47.77212        40.29843        -0.84862
C         46.47447        39.45808        -0.82149
C         47.64781        41.61299        -0.12908
C         46.44973        42.30573        -0.24167
C         47.64869        44.46802         0.06863
C         46.42539        43.75054        -0.10031
C         47.64273        45.90287        -0.00391
C         46.43707        46.60603        -0.27474
C         47.62940        48.76843        -0.01493
C         46.43245        48.05570        -0.28999
C         47.57943        50.17874         0.07541
C         46.40322        50.86916        -0.14365
C         50.17442        24.57755        -0.20442
C         48.92079        25.25019         0.01199
C         50.15734        27.34602         0.44995
C         48.94904        26.64132         0.34794
C         50.13498        28.75610         0.76047
C         48.93322        29.49430         0.71831
C         50.14317        31.64514         0.97773
C         48.95763        30.95969         0.79124
C         50.17326        33.14013         1.19173
C         48.91493        33.84618         0.75045
C         50.21753        35.91296         0.38599
C         48.96628        35.20591         0.50802
C         50.22649        37.28750         0.12229
C         49.01360        37.97014        -0.36255
C         50.22078        40.19506         0.02553
C         49.04406        39.49819        -0.53373
C         50.16021        41.57877         0.28708
C         48.83500        42.27199         0.52160
C         50.08748        44.46131         0.45909
C         48.87115        43.77016         0.29610
C         50.10097        45.91379         0.38803
C         48.87598        46.61996         0.17642
C         50.09790        48.73813         0.23833
C         48.87616        48.04614         0.14410
C         51.35322        25.25290        -0.14654
C         52.63016        27.33407         0.14466
C         51.41057        26.65696         0.16648
C         52.68650        28.73075         0.61718
C         51.41678        29.43514         1.04161
C         52.65960        31.65658         0.70800
C         51.44686        30.94674         1.31124
C         52.63872        33.02699         0.50339
C         51.43942        33.79326         0.65975
C         52.68673        35.90793         0.26150
C         51.45013        35.17611         0.44242
C         52.68110        37.31786         0.29463
C         51.43555        38.04038         0.21148
C         52.61189        40.12543         0.87341
C         51.40877        39.44857         0.26605
C         52.62443        41.61910         0.65919
C         51.35966        42.31718         0.53040
C         52.56424        44.44184         0.91941
C         51.31023        43.72669         0.64578
C         52.59144        45.97226         0.79929
C         51.30979        46.65022         0.48806
C         51.29198        48.04931         0.39054
C         55.05675        27.37723        -0.23319
C         53.90032        26.68752        -0.10718
C         55.07336        28.87222        -0.34491
C         53.87919        29.53478         0.30959
C         55.13962        31.62949         0.26489
C         53.87422        30.90864         0.42610
C         55.14568        33.00267         0.11533
C         53.83659        33.71156        -0.13634
C         55.12646        35.89058         0.02598
C         53.90953        35.20045         0.12149
C         55.14701        37.33127         0.13330
C         53.91851        38.03773         0.28153
C         55.11975        40.13890         0.60056
C         53.91514        39.44589         0.49997
C         55.09244        41.55306         1.15090
C         53.82183        42.29652         0.78692
C         55.04356        44.43977         0.73311
C         53.84206        43.73130         0.79062
C         55.03781        45.85874         0.51786
C         53.87862        46.57569         0.44878
C         56.35023        29.51402         0.13509
C         56.36479        30.84166         0.36743
C         56.35808        33.76586        -0.01944
C         56.34950        35.12886        -0.09916
C         56.34866        38.08451         0.13513
C         56.33383        39.44652         0.37245
C         56.33506        42.36504         0.88826
C         56.29531        43.70332         0.72212
O         32.09878        31.26589        -1.60012
O         34.52921        26.97629        -1.77343
O         52.54209        45.31574         2.10895
O         52.25094        28.76078         2.05310
O         37.73401        32.27656         1.69224
O         29.20523        30.56193         1.77414
O         46.46925        38.54010        -1.96276
O         42.10328        43.96580        -2.12405
O         47.02913        35.93404         1.80161
O         49.32718        38.62100        -1.66765
O         54.97007        29.16124        -1.78548
H         54.98337        30.13754        -1.88549
O         45.59302        23.54996        -2.76216
H         46.48504        23.95435        -2.83211
O         41.51838        50.83127        -2.87169
H         41.46262        49.88246        -3.11833
O         50.19774        33.35846         2.64450
H         50.77484        32.65759         3.03695
O         51.61096        31.09460         2.76182
H         52.09222        30.28374         3.06280
O         40.44127        40.23620         1.71899
H         39.70903        40.79181         2.06301
O         53.59530        33.58644        -1.58955
H         54.29526        34.10264        -2.04356
O         47.60700        27.11163         2.27443
H         47.87519        26.18328         2.44953
O         39.35620        29.46786        -1.81501
H         38.63800        29.92067        -2.30322
O         47.91790        40.70429        -2.24213
H         48.04908        39.86708        -2.74680
O         55.01452        41.35867         2.61686
H         55.00759        42.25117         3.02571
O         38.15558        24.52763         1.20915
H         37.45342        24.01095         1.65675
O         38.69753        25.31187        -2.32285
H         39.37708        25.85832        -2.77047
O         39.20620        44.04329         1.48030
H         38.36808        43.75167         1.89924
O         52.49350        39.94793         2.32935
H         53.32031        40.32773         2.71944
O         44.10725        25.85064        -2.37485
H         44.41829        25.04755        -2.86329
O         44.27163        48.01404        -2.58501
H         44.36261        48.94592        -2.88006
O         27.94736        40.25765         2.70533
H         27.90017        39.31210         2.96502
O         42.59421        28.54069         2.05618
H         43.36618        27.96070         2.30356
O         30.69015        37.21344         2.30551
H         30.82232        38.11124         2.67845
O         31.24114        42.29084        -1.82521
H         32.10149        42.49166        -2.27285
O         43.90344        37.74437        -2.20413
H         44.76122        38.08694        -2.56065
O         27.71952        31.53618        -1.46682
H         26.81414        31.77433        -1.75948
O         44.90157        27.05051         2.00760
H         45.77852        27.19794         2.45337
O         34.00545        42.29522        -2.13822
H         34.18108        41.36196        -2.38890
O         28.80434        34.04961        -1.66195
H         28.65170        33.13741        -2.01087
O         41.61833        30.97063        -1.75534
H         41.63716        31.91336        -2.02494
O         39.86263        28.76611         1.73674
H         40.69962        28.56722         2.22506
O         43.83245        35.41154         2.06116
H         43.96096        36.35603         2.29092
O         48.60555        42.10333         1.98265
H         49.35029        42.54308         2.44724
H         26.99842        26.84598         0.92159
H         25.73243        29.00835         1.04694
H         25.60219        31.39141         0.57918
H         25.85609        33.30327         1.18973
H         25.85731        35.75546         1.33489
H         25.75587        37.67018         0.48004
H         25.73690        40.10244         0.72097
H         25.83400        42.00787         1.36393
H         25.82237        44.45751         1.00069
H         27.01614        46.54356         0.55961
H         29.12795        25.63104         0.83285
H         29.11712        47.76777         0.24886
H         32.89449        23.46645         0.50741
H         30.82410        24.69190         0.80646
H         32.83118        49.89243        -0.06060
H         30.74200        48.69225         0.14330
H         34.48325        22.48229        -0.28625
H         34.45470        50.82426        -0.29393
H         36.55549        21.30641        -0.68701
H         36.54371        52.00990        -0.57049
H         40.36663        19.29156        -1.54241
H         38.21883        20.42194        -1.21932
H         40.26483        54.14787        -0.95394
H         38.14851        52.93047        -0.87614
H         42.82798        19.36700        -1.74055
H         42.74244        54.11193        -0.81875
H         44.94576        20.63202        -1.73236
H         44.87080        52.88370        -0.73104
H         48.51621        22.53185        -0.09102
H         46.52604        21.42246        -0.90728
H         48.47974        50.75042         0.33484
H         46.40676        51.96272        -0.04852
H         50.18030        23.50984        -0.45992
H         50.12678        49.83382         0.19120
H         52.28385        24.70710        -0.34749
H         52.22736        48.61782         0.47824
H         56.00429        26.83950        -0.38574
H         53.93780        25.58955        -0.14594
H         55.99687        46.35046         0.29701
H         53.90671        47.61409         0.09003
H         57.27069        28.91503         0.19771
H         57.30289        31.34583         0.64051
H         57.32203        33.23857        -0.04344
H         57.30589        35.65810        -0.20365
H         57.31692        37.58549        -0.00438
H         57.29139        39.98223         0.41868
H         57.31012        41.85997         0.93309
H         57.22772        44.27261         0.58836
