         640
 CSIRO Nanostructure Databank - Neutral Graphene Oxide Data Set
C         23.29335        27.76245         2.77930
C         23.21564        29.06340         2.22363
C         23.10530        31.92421         1.49028
C         23.08863        33.27161         1.19040
C         23.05779        36.13174         0.56264
C         23.03947        37.47406         0.19411
C         23.02428        40.28918        -0.65437
C         23.02912        41.65011        -0.95584
C         23.00193        44.52161        -1.45588
C         22.99663        45.88370        -1.62907
C         25.83406        25.14502         3.56056
C         24.65889        25.85245         3.61614
C         25.73703        27.89774         2.70114
C         24.51706        27.16477         3.04973
C         25.63991        29.15057         1.94295
C         24.34527        29.77361         1.82124
C         25.47525        31.81585         0.95012
C         24.30109        31.16952         1.37956
C         25.48841        33.21823         0.69757
C         24.26974        33.95477         0.81742
C         25.49452        36.04401         0.35966
C         24.27366        35.38269         0.59389
C         25.51422        37.54869         0.40853
C         24.22217        38.19532        -0.02049
C         25.46329        40.20193        -0.76540
C         24.23252        39.55352        -0.48762
C         25.45897        41.52759        -1.48639
C         24.20632        42.34454        -1.25372
C         25.43995        44.46672        -1.64201
C         24.22240        43.77181        -1.46292
C         25.45110        45.88410        -1.74315
C         24.21731        46.59988        -1.75810
C         25.41577        48.70531        -1.95847
C         24.22873        48.01430        -1.90003
C         28.21846        23.46773         2.96501
C         28.08431        24.82581         2.52164
C         27.00033        25.62526         2.86264
C         28.04066        27.61265         1.64087
C         27.03643        27.06751         2.54009
C         28.00931        28.97205         1.29423
C         26.78621        29.71870         1.40162
C         27.98014        31.77056         0.59822
C         26.68866        30.99420         0.60186
C         27.96440        33.16283         0.35495
C         26.71145        33.89503         0.37098
C         27.92923        36.01378        -0.06238
C         26.71785        35.31763         0.22724
C         27.94541        37.42482        -0.25732
C         26.74028        38.16697        -0.18997
C         27.93893        40.19674        -0.86813
C         26.70586        39.52258        -0.59363
C         27.92515        41.63658        -1.08720
C         26.73662        42.30533        -1.30414
C         27.93162        44.52065        -1.42110
C         26.73677        43.71825        -1.83820
C         27.93279        45.91196        -1.58889
C         26.68399        46.62027        -1.78717
C         27.91279        48.77571        -1.78257
C         26.67200        48.03118        -1.86178
C         27.94759        50.18685        -1.86429
C         30.48613        23.32698         2.02031
C         29.33779        22.73949         2.68235
C         30.43674        24.62640         1.56681
C         29.06068        25.25501         1.43600
C         30.43191        27.47568         0.82290
C         29.11338        26.75266         1.15323
C         30.43340        28.94351         0.84588
C         29.21770        29.63655         0.85934
C         30.43562        31.76179         0.51275
C         29.19997        31.06773         0.66029
C         30.42347        33.16421         0.24464
C         29.19226        33.84323         0.13603
C         30.44222        36.00047        -0.29159
C         29.15404        35.23034        -0.44633
C         30.42949        37.38682        -0.50785
C         29.17275        38.10409        -0.58372
C         30.41754        40.20360        -1.27326
C         29.15514        39.49411        -0.83594
C         30.39917        41.68844        -0.97167
C         29.18133        42.35280        -0.98719
C         30.41100        44.49423        -1.14430
C         29.09927        43.84531        -0.74701
C         30.42456        45.94866        -1.47322
C         29.14572        46.66711        -1.51782
C         30.39158        48.80365        -1.52461
C         29.14988        48.07771        -1.60691
C         30.37817        50.21859        -1.57348
C         29.13540        50.88398        -1.75400
C         32.93468        20.43957         1.74043
C         31.74176        21.17055         1.98261
C         32.94903        23.27328         1.67913
C         31.72067        22.55536         1.91158
C         32.94149        24.59827         1.29411
C         31.64242        25.24209         0.86472
C         32.89858        27.45378         0.93647
C         31.70112        26.75443         0.94941
C         32.91156        28.90743         0.82165
C         31.68499        29.63143         0.76066
C         32.90599        31.75338         0.48705
C         31.67393        31.04956         0.58903
C         32.90080        33.18618         0.27166
C         31.67896        33.87563         0.11248
C         32.89990        36.01224        -0.16592
C         31.66886        35.29591        -0.11918
C         32.89949        37.42676        -0.37500
C         31.66886        38.12053        -0.56619
C         32.88824        40.23824        -0.79339
C         31.67927        39.51790        -0.80667
C         32.87984        41.68892        -0.87010
C         31.65483        42.37199        -0.85246
C         32.92346        44.56081        -1.01934
C         31.66323        43.85560        -0.58614
C         32.90558        45.97830        -1.18825
C         31.68152        46.69464        -1.32100
C         32.87313        48.83159        -1.29794
C         31.64738        48.10299        -1.37738
C         32.85554        50.26558        -1.31657
C         31.61410        50.96085        -1.43340
C         32.80115        53.08039        -1.23130
C         31.62524        52.37517        -1.39789
C         35.43326        18.95383         1.32256
C         35.37136        20.33552         1.33084
C         34.16503        21.06387         1.63606
C         35.44990        23.25763         1.51294
C         34.22425        22.54504         2.00674
C         35.42778        24.60965         1.22487
C         34.17082        25.34035         1.15692
C         35.40039        27.46056         0.79636
C         34.16479        26.73149         0.96842
C         35.40478        28.88557         0.72939
C         34.14220        29.61968         0.76260
C         35.37023        31.80366         0.70592
C         34.11701        31.03446         0.62181
C         35.38616        33.22676         0.32675
C         34.14282        33.90545         0.17711
C         35.37661        36.02131        -0.13301
C         34.13824        35.31119        -0.03940
C         35.37238        37.43832        -0.31167
C         34.13138        38.14391        -0.42939
C         35.36411        40.27768        -0.68319
C         34.12771        39.55260        -0.62385
C         35.35881        41.70436        -0.84980
C         34.12509        42.41166        -0.88758
C         35.38839        44.55003        -1.14964
C         34.13679        43.84527        -1.01987
C         35.38629        45.99504        -1.20719
C         34.14015        46.70176        -1.21321
C         35.34112        48.85609        -1.16089
C         34.11159        48.12715        -1.22618
C         35.32744        50.28164        -1.12167
C         34.07419        50.99272        -1.20702
C         35.26696        53.15335        -0.92338
C         34.05174        52.41825        -1.13659
C         35.25777        54.48173        -0.49311
C         37.81833        18.89009         0.73183
C         36.61354        18.24580         0.96561
C         37.87416        20.33442         0.84781
C         36.56964        21.11799         0.82653
C         37.93298        23.18955         1.08594
C         36.72295        22.44846         1.57719
C         37.86187        24.58774         0.89930
C         36.65840        25.31826         0.92330
C         37.81409        27.45422         0.31519
C         36.63199        26.74395         0.68145
C         37.81843        28.85820         0.22448
C         36.63458        29.57025         0.53003
C         37.89233        31.79616         0.30724
C         36.68182        31.04475         0.67364
C         37.87212        33.17053         0.13776
C         36.61065        33.90066         0.15078
C         37.83873        36.02464        -0.27350
C         36.61096        35.31423        -0.07556
C         37.81997        37.41591        -0.45063
C         36.60044        38.14289        -0.42261
C         37.81749        40.30843        -0.64977
C         36.59232        39.58179        -0.57458
C         37.81860        41.67454        -0.91524
C         36.59610        42.40796        -0.99112
C         37.87227        44.55280        -1.24781
C         36.60477        43.83758        -1.14404
C         37.87212        46.01892        -1.32739
C         36.60129        46.71649        -1.26274
C         37.78852        48.89765        -1.21929
C         36.58166        48.15355        -1.21526
C         37.76667        50.28887        -1.04294
C         36.54757        50.98926        -1.03006
C         37.76870        53.13117        -0.51584
C         36.58775        52.49075        -1.21552
C         37.68213        54.48779        -0.08181
C         36.42717        55.14931        -0.13000
C         40.12343        16.15554        -0.46329
C         38.98182        16.81968        -0.07311
C         40.27257        18.84610         0.36044
C         39.03653        18.17547         0.35511
C         40.37199        20.22192         0.97262
C         39.07788        20.99746         0.86378
C         40.37837        23.09702         0.70222
C         39.12368        22.45002         0.87044
C         40.38283        24.57467         0.81486
C         39.09909        25.24890         0.45380
C         40.36824        27.41588        -0.03001
C         39.06202        26.68929         0.07670
C         40.34476        28.88614        -0.24252
C         39.01933        29.63758        -0.33357
C         40.37689        31.76263        -0.08515
C         39.16436        31.00077         0.37677
C         40.34916        33.17426        -0.24497
C         39.10418        33.90215        -0.13169
C         40.33102        36.01464        -0.49755
C         39.09537        35.29329        -0.31129
C         40.35186        37.42390        -0.61470
C         39.06421        38.16335        -0.86628
C         40.37105        40.29078        -0.58979
C         39.08504        39.56593        -0.27475
C         40.31251        41.78713        -0.48058
C         39.12144        42.34391        -1.28074
C         40.34669        44.52323        -1.44719
C         39.06069        43.84850        -1.22655
C         40.33738        46.01993        -1.60602
C         39.05767        46.73360        -1.44020
C         40.27700        48.91030        -0.95367
C         39.08414        48.24140        -1.60981
C         40.24730        50.24306        -0.61968
C         39.06534        51.06650        -1.08617
C         40.12760        53.03083         0.13525
C         38.97277        52.42777        -0.43732
C         40.07802        54.40934         0.51527
C         38.86502        55.14945         0.39425
C         39.99756        57.16989         1.17226
C         38.86054        56.53537         0.73623
C         42.56278        16.14206        -0.87330
C         41.37858        16.81805        -0.46657
C         42.72495        18.86397        -0.08916
C         41.45659        18.18090        -0.05398
C         42.79575        20.27216         0.22510
C         41.61614        20.98470         0.55967
C         42.88152        23.15036         0.68685
C         41.59969        22.39961         0.64399
C         42.90360        24.61853         0.48539
C         41.65956        25.35231         0.80961
C         42.85938        27.47830         0.10283
C         41.61008        26.87451         0.68914
C         42.83629        28.89849        -0.04156
C         41.60976        29.62281        -0.01445
C         42.84079        31.71534        -0.30922
C         41.60934        31.03492        -0.12946
C         42.81031        33.12006        -0.83407
C         41.54828        33.87891        -0.51803
C         42.78876        36.02676        -0.73547
C         41.56991        35.29878        -0.58158
C         42.80735        37.43252        -0.70429
C         41.56283        38.13977        -0.66210
C         42.83403        40.30319        -0.75439
C         41.56461        39.59963        -0.68563
C         42.84412        41.72950        -0.79657
C         41.61304        42.46655        -0.83815
C         42.84097        44.57614        -1.03309
C         41.61617        43.83143        -1.09620
C         42.83942        45.99814        -1.02114
C         41.62689        46.75279        -1.38597
C         42.72831        48.82277        -0.35738
C         41.57159        48.21540        -1.02236
C         42.58394        50.12922         0.16450
C         41.39801        50.88100        -0.01506
C         42.46622        52.92828         0.90043
C         41.33964        52.27730         0.35279
C         42.47211        54.33389         1.15183
C         41.25743        55.06715         0.98630
C         42.39975        57.08921         1.77099
C         41.22158        56.45234         1.31091
C         43.77021        16.79630        -0.89295
C         45.15671        18.85709        -0.58957
C         43.88104        18.17016        -0.51993
C         45.21642        20.25178        -0.26204
C         44.06389        20.93913         0.10660
C         45.33288        23.13929        -0.06428
C         44.16178        22.38260         0.43979
C         45.24466        24.51920        -0.25776
C         44.03959        25.27276         0.03695
C         45.21719        27.44524        -0.46368
C         44.02936        26.73922        -0.11994
C         45.26179        28.85693        -0.43124
C         44.06505        29.59518        -0.22437
C         45.31126        31.71969        -0.48610
C         44.06643        31.02075        -0.32841
C         45.33164        33.14417        -0.56695
C         44.03696        33.90357        -0.38562
C         45.32522        36.02695        -0.71206
C         44.06029        35.27938        -1.04759
C         45.30874        37.44830        -0.72067
C         44.06085        38.15875        -0.74842
C         45.32010        40.29452        -0.83823
C         44.06624        39.58170        -0.77969
C         45.32003        41.71975        -0.86411
C         44.07735        42.43689        -0.86091
C         45.28894        44.58836        -0.72212
C         44.07332        43.86744        -0.86854
C         45.24517        46.00256        -0.51754
C         44.00185        46.71040        -0.63522
C         45.12678        48.75130         0.24136
C         43.94957        48.10419        -0.27647
C         45.04175        50.05647         0.79017
C         43.71963        50.69129         0.90852
C         44.92168        52.86136         1.56404
C         43.65557        52.16108         1.29651
C         44.89979        54.26066         1.75845
C         43.64949        54.99710         1.61380
C         43.57840        56.37835         1.91195
C         47.54556        18.89085        -1.17614
C         46.32978        18.20379        -1.00460
C         47.68649        20.23605        -0.86491
C         46.56782        20.93156        -0.12162
C         47.71425        23.09295        -0.71179
C         46.52764        22.42043        -0.38228
C         47.72443        24.52493        -0.82049
C         46.41802        25.20659        -0.82830
C         47.71005        27.41859        -0.91662
C         46.41655        26.72108        -0.90867
C         47.71904        28.83853        -0.84297
C         46.49968        29.55992        -0.65868
C         47.77244        31.66758        -0.76068
C         46.52814        30.97510        -0.61019
C         47.82072        33.12854        -0.39996
C         46.52115        33.85401        -0.64483
C         47.77807        35.99012        -0.80420
C         46.53000        35.29671        -0.69052
C         47.76397        37.40808        -0.83311
C         46.54647        38.15245        -0.74099
C         47.79542        40.30699        -0.94741
C         46.56475        39.58928        -0.84523
C         47.77705        41.71109        -0.93145
C         46.55361        42.43196        -0.86737
C         47.73271        44.58495        -0.54017
C         46.54703        43.87546        -0.71378
C         47.71292        46.03083        -0.32299
C         46.42737        46.72037        -0.19974
C         47.54605        48.71304         0.79145
C         46.38563        48.07026         0.22997
C         47.43863        50.02967         1.31816
C         46.18509        50.72366         1.28359
C         47.31502        52.78139         2.09708
C         46.12649        52.11647         1.67965
C         47.27370        54.17954         2.30268
C         46.11116        54.90423         2.11281
C         50.12394        20.28535        -1.42901
C         48.91868        20.95452        -1.08485
C         50.15033        23.09212        -1.19216
C         48.94102        22.37182        -0.97697
C         50.16963        24.52701        -1.08464
C         48.91453        25.24342        -0.95739
C         50.15137        27.41903        -0.97613
C         48.91912        26.69881        -0.97971
C         50.17486        28.81813        -1.05184
C         48.94320        29.54413        -1.01463
C         50.18659        31.68716        -1.47712
C         48.94284        30.97125        -1.01639
C         50.22738        33.16317        -1.16066
C         49.04232        33.84796        -0.90346
C         50.17751        35.93882        -1.45857
C         49.00912        35.26137        -0.99311
C         49.97286        37.32647        -1.75123
C         48.95332        38.09610        -1.23236
C         50.41068        40.32596        -1.18647
C         49.11551        39.54912        -0.83829
C         50.32789        41.67843        -0.72044
C         49.06135        42.43982        -0.91348
C         50.18940        44.54204         0.08632
C         49.04957        43.92962        -0.63049
C         50.10857        45.83970         0.62714
C         48.95377        46.70110         0.27138
C         49.82115        48.52536         1.71729
C         48.77416        47.99302         0.96322
C         49.77838        49.89495         2.11487
C         48.58674        50.65383         1.90313
C         49.67527        52.59428         2.89633
C         48.53460        52.02220         2.30122
C         51.30474        20.97682        -1.59787
C         52.59926        23.11847        -1.57471
C         51.36055        22.39101        -1.46629
C         52.61511        24.52789        -1.35848
C         51.38685        25.21895        -1.12453
C         52.67177        27.40112        -1.04317
C         51.41607        26.65985        -0.67941
C         52.67605        28.82135        -1.01251
C         51.43514        29.56000        -1.05143
C         52.68643        31.69569        -1.14411
C         51.45798        30.94913        -1.15620
C         52.70975        33.11288        -1.27211
C         51.45865        33.87135        -1.34503
C         52.78224        35.94757        -1.89297
C         51.44657        35.27559        -1.51171
C         52.88924        37.47038        -1.70795
C         51.90889        38.42861        -1.94270
C         52.84464        40.57220        -0.98412
C         51.71336        39.79096        -1.42015
C         52.69580        41.75084        -0.20406
C         51.41877        42.35330        -0.17353
C         52.47361        44.26907         1.09287
C         51.20489        43.58596         0.66045
C         52.28247        45.54679         1.78847
C         51.10391        46.36110         1.47110
C         52.23940        48.39456         2.47376
C         50.93268        47.64553         2.24584
C         52.20281        49.78551         2.73050
C         50.94024        50.52203         2.66070
C         50.85004        51.86507         3.05987
C         55.02321        23.14785        -1.85643
C         53.83194        22.46043        -1.83977
C         55.07683        24.55162        -1.61843
C         53.86001        25.24365        -1.38703
C         55.11259        27.38122        -1.23849
C         53.87182        26.67998        -1.21986
C         55.13170        28.79278        -1.02379
C         53.90062        29.52994        -0.98423
C         55.12316        31.66898        -0.77553
C         53.91448        30.97101        -0.96887
C         55.15088        33.08817        -0.81144
C         53.95169        33.81660        -1.14538
C         55.20949        35.90111        -0.90223
C         54.00155        35.23944        -1.23876
C         55.28593        37.33839        -0.96975
C         54.21918        37.96218        -1.55228
C         55.20886        40.42563        -0.26468
C         54.17343        40.09846        -1.12892
C         55.05154        41.64156         0.45345
C         53.84392        42.35047         0.41142
C         54.88887        44.34022         1.55942
C         53.71339        43.66203         1.04273
C         54.81249        45.58823         2.15503
C         53.50563        46.23538         2.36755
C         54.67073        48.36966         2.90168
C         53.46307        47.69941         2.57592
C         54.61763        49.76571         3.09819
C         53.41609        50.45153         3.01566
C         57.58266        24.59585        -1.77268
C         56.33676        25.26129        -1.60092
C         57.57892        27.38058        -1.30414
C         56.34355        26.67092        -1.38332
C         57.59132        28.78573        -1.02347
C         56.35990        29.46680        -0.86784
C         57.63354        31.58765        -0.52624
C         56.33376        30.87036        -0.34090
C         57.58264        33.02073        -0.20218
C         56.37106        33.79507        -0.54197
C         57.71047        35.91464        -0.46441
C         56.43356        35.19516        -0.61531
C         57.80774        37.41045        -0.60967
C         56.52395        38.16249        -0.76535
C         57.64869        40.27908         0.29361
C         56.34980        39.45689         0.07378
C         57.41995        41.39788         1.37626
C         56.28924        42.29690         0.93380
C         57.35991        44.24199         2.18766
C         56.21555        43.69990         1.42588
C         57.24417        45.56427         2.69697
C         55.99958        46.27721         2.61688
C         57.08360        48.22488         3.60438
C         55.92244        47.62033         3.04296
C         58.77880        25.27768        -1.70414
C         60.03053        27.38762        -1.32361
C         58.80916        26.67892        -1.45195
C         60.03905        28.74931        -1.05601
C         58.84085        29.47928        -0.90863
C         60.07020        31.68702        -0.67026
C         58.83371        30.91997        -0.67113
C         60.10551        33.00901        -0.37803
C         58.88361        33.75220        -0.02144
C         60.06535        35.91622         0.30424
C         58.86295        35.22999        -0.12928
C         60.13867        37.25403         0.42094
C         59.10922        38.16154        -0.18959
C         59.89379        40.05727         1.28276
C         58.87081        39.44095         0.62667
C         59.83643        41.42691         1.75109
C         58.68384        42.16164         1.73268
C         59.68824        44.17146         2.87357
C         58.57393        43.52966         2.25787
C         59.59977        45.45936         3.35953
C         58.38388        46.19148         3.27723
C         58.26893        47.53260         3.73722
O         49.27633        43.40401        -2.00791
O         41.86823        47.76698        -2.43096
O         36.10736        31.51413         1.95145
O         43.75326        22.71424         1.80354
O         58.13708        33.27244         1.15924
O         54.44111        39.20483        -2.15257
O         43.37098        51.09663         2.27896
O         56.65244        43.38418         0.02843
O         52.59427        45.47917         3.25951
O         38.99726        25.64623        -0.96300
O         40.56151        27.94167        -1.37494
O         57.39218        38.00375        -1.91393
O         48.69454        46.77105        -1.15590
O         50.81209        37.96083        -2.66187
O         30.50437        44.85908        -2.53350
O         40.40835        45.15216        -2.79201
O         29.51929        26.96676        -0.24460
O         26.77926        27.89888         3.72063
O         46.15235        25.89711        -2.10819
O         41.01486        24.96404         2.09167
O         50.58980        43.08117         1.91502
H         50.73879        43.76007         2.60915
O         39.04648        39.43513         1.17755
H         39.11043        40.34985         1.53840
O         56.98557        40.81118         2.63948
H         57.75105        40.33527         3.02724
O         44.11930        35.10835        -2.49192
H         44.12682        36.00037        -2.89702
O         34.32834        22.55032         3.47908
H         35.22952        22.19516         3.68473
O         40.03974        42.10965         0.93050
H         40.85260        41.90556         1.44063
O         36.28372        21.45664        -0.55805
H         36.16296        20.62135        -1.05571
O         28.89529        44.04559         0.68649
H         29.76998        43.91057         1.12747
O         46.92127        20.80118         1.30690
H         46.94289        19.84273         1.51366
O         38.74731        29.89342        -1.72452
H         39.05835        29.10421        -2.22479
O         25.62019        37.87281         1.87061
H         24.83009        37.47797         2.29978
O         36.96809        22.09527         2.98368
H         37.50669        22.80690         3.38968
O         39.40921        42.00394        -2.66554
H         38.76601        42.46887        -3.24029
O         36.82801        52.68669        -2.65537
H         37.71722        52.28870        -2.84813
O         41.52708        27.42912         2.03241
H         41.31931        26.68559         2.64718
O         49.31766        39.42353         0.62914
H         48.53105        38.96590         0.99778
O         59.74640        38.64922        -1.40197
H         59.01200        38.87591        -2.02440
O         30.43942        40.10878        -2.74263
H         30.42249        39.15617        -2.97572
O         40.55345        19.99897         2.42257
H         41.43985        19.59867         2.55026
O         39.25661        48.50718        -3.05343
H         40.15156        48.14827        -3.28554
O         50.47972        47.24127         3.59136
H         51.16362        46.60611         3.92043
O         38.97286        38.33864        -2.31240
H         38.99539        37.45178        -2.72852
O         52.93640        35.68102        -3.32141
H         52.24096        36.19233        -3.78836
O         31.48972        24.94087        -0.56819
H         30.80286        25.56040        -0.91045
O         47.96937        33.14105         1.07535
H         47.23196        32.61045         1.44672
O         26.84986        43.54721        -3.32514
H         27.79002        43.34040        -3.52355
O         29.01756        35.01317        -1.91397
H         29.72023        34.38148        -2.17901
O         31.59314        44.02541         0.88422
H         32.37307        43.57074         1.26910
O         57.90744        40.91653        -0.96889
H         58.71316        41.46737        -0.88030
O         43.88598        34.10095         1.04373
H         44.65091        34.62676         1.35996
O         39.30907        51.31513        -2.51881
H         39.32393        50.42118        -2.95478
O         56.20126        30.73266         1.13112
H         56.55756        31.55507         1.53541
O         50.09068        31.64844        -2.95286
H         50.90313        32.06783        -3.30929
O         28.45899        24.65126         0.23905
H         28.86290        25.10076        -0.53746
O         42.85963        32.95570        -2.28209
H         42.07474        32.43413        -2.55095
O         51.45468        26.58749         0.80447
H         52.28276        26.12211         1.05077
O         55.93526        38.84639         1.32411
H         55.91510        39.54630         2.02461
O         25.41674        41.19177        -2.93172
H         25.74155        41.99782        -3.40858
O         26.49017        30.57895        -0.80278
H         25.63774        30.09581        -0.84673
O         39.37244        30.65325         1.78172
H         39.32288        31.47630         2.31207
H         22.36255        27.23258         3.02785
H         22.21758        29.50588         2.10228
H         22.17750        31.44125         1.82416
H         22.14151        33.81767         1.28829
H         22.09717        35.62476         0.71755
H         22.06229        37.95126         0.03617
H         22.05905        39.81051        -0.44346
H         22.06675        42.17898        -0.91809
H         22.04177        44.00289        -1.33925
H         22.04628        46.43637        -1.64932
H         25.84356        24.12264         3.96320
H         23.76732        25.37717         4.05172
H         25.38530        49.79910        -2.04761
H         23.27173        48.55396        -1.94443
H         27.43242        23.02081         3.58939
H         27.02166        50.75702        -2.01464
H         29.41487        21.71136         3.06141
H         29.10182        51.97905        -1.81907
H         32.84757        19.35335         1.59220
H         30.80727        20.60704         2.10996
H         32.75881        54.17749        -1.21272
H         30.68846        52.93956        -1.49044
H         34.55532        18.36025         1.61507
H         34.30414        55.01506        -0.37311
H         36.55829        17.14898         0.93550
H         36.34226        56.19139         0.20408
H         40.07203        15.10569        -0.78592
H         38.01875        16.29191        -0.09692
H         39.97438        58.24017         1.42293
H         37.93614        57.11952         0.63834
H         42.49854        15.08779        -1.17870
H         42.36978        58.16001         2.01827
H         44.66088        16.24451        -1.21997
H         44.46866        56.90798         2.27568
H         48.38685        18.33401        -1.61234
H         46.30817        17.13882        -1.26779
H         48.18470        54.71850         2.59490
H         46.14077        55.99164         2.25951
H         50.13526        19.19133        -1.52564
H         49.65608        53.63652         3.24133
H         52.21572        20.40848        -1.82729
H         51.71336        52.36700         3.51662
H         55.94666        22.59021        -2.05964
H         53.84815        21.37892        -2.02812
H         55.53348        50.33073         3.31648
H         53.42341        51.53778         3.17582
H         57.60658        23.51303        -1.95348
H         57.03539        49.26101         3.96564
H         59.72824        24.73709        -1.82846
H         60.98018        26.84415        -1.43141
H         61.00803        29.25660        -0.95672
H         61.00672        31.18504        -0.94909
H         61.05021        33.56218        -0.48275
H         60.89462        35.29775         0.67717
H         61.05651        37.70758         0.81985
H         60.85321        39.53961         1.42414
H         60.78045        41.86752         2.10152
H         60.64527        43.63827         2.95618
H         60.48060        45.93630         3.81306
H         59.14349        48.02015         4.19141
