         300
 CSIRO Nanostructure Databank - Neutral Graphene Oxide Data Set
C         30.22776        31.61376        -0.27944
C         30.19124        32.85737        -0.30069
C         30.24032        36.07525        -0.24943
C         30.13203        37.31938        -0.18665
C         30.37749        40.38520        -0.76051
C         30.61123        41.33771        -1.50850
C         32.62184        28.80531         0.56262
C         31.54422        29.34107         0.24732
C         32.53394        31.47638         0.07420
C         31.34248        30.75827         0.02556
C         32.60995        32.95604        -0.04783
C         31.33376        33.76902        -0.31329
C         32.51347        35.95565         0.29827
C         31.32295        35.20782        -0.02510
C         32.51432        37.35892         0.41267
C         31.24687        38.14740         0.28728
C         32.57635        40.47579         0.34523
C         31.27518        39.65666         0.14222
C         32.99602        41.45460        -0.78948
C         31.81822        41.91830        -2.10059
C         33.14210        44.04416        -1.87494
C         32.14638        43.35390        -2.12353
C         35.46182        27.22681         0.79263
C         35.14210        28.60888         1.25141
C         34.04252        29.23662         0.31251
C         35.01158        31.64159         0.06266
C         33.82632        30.84628         0.56997
C         35.09997        32.99026         0.35690
C         33.79117        33.67320         0.56680
C         35.06243        35.94033         0.50686
C         33.75750        35.17485         0.64266
C         34.97492        37.37949         1.00754
C         33.84227        38.13063         0.23823
C         35.08633        40.36251         0.86354
C         33.79587        39.60577         0.68653
C         35.03196        41.92606         0.80854
C         34.14592        42.34115        -0.41908
C         35.19799        44.73487        -0.30393
C         34.11844        43.82973        -0.78966
C         35.61153        46.07767        -0.72872
C         37.73683        27.32620         0.01100
C         36.41524        26.71058         0.21092
C         37.71907        28.65222         0.75592
C         36.57447        29.27619         1.16139
C         37.77720        31.52504         1.01664
C         36.72675        30.67407         1.70091
C         37.63197        32.97565         0.51075
C         36.33935        33.71533         0.89529
C         37.62867        35.97195         0.65967
C         36.36970        35.20358         0.49000
C         37.64830        37.37259         0.57317
C         36.40228        38.14911         1.07739
C         37.69950        40.26481         0.73211
C         36.32364        39.59368         0.38341
C         37.69726        41.82489         0.59759
C         36.41841        42.61753         0.71327
C         37.77836        44.84253         0.43338
C         36.36789        44.17345         0.62152
C         37.90904        46.34730         0.10773
C         36.60900        46.74715        -0.45361
C         40.23914        24.62048        -0.86198
C         39.18686        25.26062        -0.77565
C         40.41985        27.24156        -0.09027
C         39.00184        26.68231        -0.46602
C         40.25812        28.75957         0.23657
C         39.00665        29.39340         0.82590
C         40.28910        31.66441         0.91213
C         38.96550        30.88776         0.81776
C         40.17816        33.04769         0.25222
C         38.91679        33.75232         0.75620
C         40.12340        35.85394         0.00356
C         38.90377        35.23998         0.71160
C         40.13419        37.36328         0.13624
C         38.88452        38.05750         0.34951
C         40.18648        40.27491         0.30456
C         38.85355        39.54076        -0.01324
C         40.15590        41.70089        -0.26384
C         38.90639        42.49827        -0.01943
C         40.28131        44.68974        -0.28297
C         38.96115        44.02011        -0.02768
C         40.51172        46.18197        -0.13893
C         39.24060        47.02211        -0.13782
C         40.63030        48.68820        -1.19727
C         39.52085        48.26092        -0.87390
C         42.87455        24.60239        -0.83561
C         41.55273        25.01651        -1.38966
C         42.82471        27.31719        -1.21981
C         41.60961        26.73765        -0.98708
C         42.99965        28.76225        -1.09431
C         41.16267        29.76791        -0.34069
C         42.69743        31.71773        -0.20545
C         41.42416        30.97249         0.19824
C         42.72508        33.05381         0.53569
C         41.45155        33.82742         0.45485
C         42.70948        35.86763         0.10385
C         41.42965        35.17800         0.42076
C         42.63801        37.31320        -0.29932
C         41.34157        38.01408        -0.05816
C         42.70492        40.09984         0.26506
C         41.39429        39.49877        -0.27003
C         42.73411        41.58974        -0.08210
C         41.50051        42.38081        -0.39894
C         42.59499        44.57147         0.50500
C         41.59043        43.91829        -0.47965
C         43.02505        45.93898        -0.10580
C         41.81763        46.67095        -0.65739
C         42.96737        48.69584        -0.19478
C         42.01022        48.14541        -1.22515
C         43.95804        25.18309        -0.97123
C         45.35663        27.35345        -1.28461
C         44.10779        26.53925        -1.61090
C         45.35824        28.77634        -0.73939
C         44.05273        29.46427        -0.56316
C         45.22778        31.50970         0.56263
C         43.96093        30.84918         0.05355
C         45.37543        33.05750         0.75506
C         44.02351        33.78251         0.70315
C         45.18641        35.89657         0.11904
C         44.02809        35.24388         0.42008
C         45.17745        37.20650        -0.68063
C         43.93821        38.05671        -0.42467
C         45.13613        40.32779        -0.57261
C         43.96040        39.40414        -0.26074
C         45.23801        41.48581         0.50779
C         43.91427        42.27783         0.53484
C         45.11805        44.45662         1.24338
C         43.83387        43.73420         0.86683
C         45.03222        45.97475         1.49851
C         43.89437        46.74756         0.92337
C         43.81295        48.15922         0.53465
C         47.71835        27.37326        -0.83422
C         46.68293        26.74221        -1.04432
C         47.96609        28.84491        -0.66379
C         46.60520        29.36327        -0.11575
C         47.82685        31.54858         0.79718
C         46.55167        30.73708         0.49566
C         47.82619        32.92497         0.08021
C         46.43182        33.57983        -0.24418
C         47.66872        35.93531         0.23620
C         46.42983        35.17890        -0.38513
C         47.78245        37.37723        -0.32751
C         46.48511        38.05185        -0.66736
C         47.75171        40.33662        -0.48562
C         46.46489        39.57402        -0.71103
C         47.68964        41.84980        -0.30635
C         46.41988        42.43998         0.23446
C         47.77990        44.50070         1.06947
C         46.43204        43.76614         0.96614
C         47.47594        45.89242         1.42900
C         46.40610        46.42943         1.71691
C         50.45102        28.91385        -0.39899
C         49.11812        29.18931         0.25767
C         50.45106        31.53070         0.60562
C         49.16877        30.73732         0.61469
C         50.39332        33.08190         0.76823
C         49.10238        33.70588         0.15758
C         50.30520        36.00355         0.01988
C         49.03559        35.22106         0.22595
C         50.29500        37.50190        -0.19402
C         48.99440        38.21697        -0.02982
C         50.22146        40.38098         0.23115
C         48.97775        39.58989        -0.05707
C         50.23291        41.85054        -0.08095
C         48.99256        42.65755        -0.44807
C         50.31102        44.59515         0.20601
C         49.00782        43.93534         0.45741
C         51.50977        29.56470        -0.29569
C         52.82145        31.76968         0.14420
C         51.75593        30.88946         0.09930
C         52.86358        33.01489         0.41876
C         51.61986        33.77824         0.11283
C         52.72214        36.12739        -0.25008
C         51.57997        35.21081        -0.25544
C         52.70044        37.31067         0.11999
C         51.60418        38.26785        -0.08011
C         52.65551        40.55657         0.26176
C         51.54278        39.60762         0.59561
C         52.69001        41.75956         0.01929
C         51.75565        42.71336        -0.58347
C         51.38789        44.01499         0.01619
O         37.92059        45.85609         1.46601
O         39.34829        44.45781        -1.38661
O         38.21484        27.48363        -1.36062
O         46.70752        42.50684        -1.18678
O         48.70619        33.04948        -1.07570
O         42.37564        41.84847        -1.45113
O         39.92983        35.52715        -1.35353
O         47.39512        37.56278        -1.70312
O         44.30982        30.85177         1.47649
O         43.89491        46.35953         2.31007
O         35.69015        35.64918        -0.76956
O         47.26985        40.02256        -1.83871
O         51.46161        34.17495        -1.26145
O         36.15014        31.04136         2.70925
O         50.09286        41.42431         1.28002
O         41.84278        29.42112        -1.50107
O         34.25770        41.32570        -1.47254
O         43.28052        33.25271         1.86973
O         49.81004        35.71435         1.36702
O         43.53684        42.71739         1.87543
O         40.05177        46.89895         1.05858
O         34.36079        39.83511         1.99987
O         33.57177        34.35696         1.85257
O         30.86249        39.06379         1.35940
O         39.22213        41.95321        -1.33770
O         49.98780        30.86399         1.82240
O         37.27993        42.36566         1.87356
O         36.65585        38.32147         2.41964
O         45.81370        43.70058         2.28499
O         32.28105        33.46061        -1.38509
O         39.13217        34.50488         1.96591
O         50.99095        38.07032        -1.36382
O         46.52695        29.52543         1.31818
O         46.27980        35.46373        -1.82169
O         45.55056        28.47685        -2.19322
O         42.61255        36.26060        -1.31823
O         48.70907        43.70976         1.84722
O         40.09412        28.92213         1.69110
O         33.93671        44.63485         0.39344
O         45.19971        36.52773        -1.99800
O         51.49842        39.33743         1.98528
H         51.36244        40.19063         2.45414
O         44.06793        26.33776        -3.02409
H         44.96899        26.11690        -3.34194
O         45.42378        40.87364         1.79167
H         45.36527        41.60042         2.46108
O         42.68378        32.07405        -1.59632
H         42.30564        31.32396        -2.10662
O         37.52313        32.88602        -0.94159
H         38.43662        32.77109        -1.33271
O         34.03261        38.10153        -1.18369
H         34.53585        37.29644        -1.43952
O         38.65780        39.55192        -1.43977
H         39.53863        39.45095        -1.88557
O         40.08771        32.89392        -1.18804
H         40.14783        33.84804        -1.54147
O         44.00178        45.69206        -1.15166
H         43.53421        45.19726        -1.87015
O         40.33282        40.46740         1.70729
H         40.38961        39.60378         2.16684
O         34.48569        37.23961         2.34398
H         35.13568        37.71492         2.93143
O         46.03420        33.01323        -1.49360
H         46.55356        33.43328        -2.21451
O         41.83825        44.76141         1.70295
H         42.39984        45.22900         2.36827
O         32.22133        41.30389         1.44987
H         32.89337        41.19207         2.16649
O         40.52991        31.86336         2.30553
H         40.64980        30.98688         2.72906
O         42.59299        48.14378        -2.49415
H         43.49175        47.75890        -2.42863
O         44.81001        40.90835        -1.83778
H         45.63714        40.94230        -2.37502
O         51.84062        42.73373        -1.94968
H         51.09399        43.25398        -2.32061
O         33.77058        31.03927         1.99440
H         32.96052        30.60166         2.33469
O         41.31876        39.62474        -1.70960
H         42.09731        39.18737        -2.11777
O         41.58171        24.92155        -2.76384
H         42.45079        25.24787        -3.10077
O         49.11646        43.07078        -1.81561
H         48.21200        43.17836        -2.19000
O         42.74085        39.89218         1.68774
H         43.59606        40.24945         2.03150
O         47.29215        36.08236         1.61963
H         48.11331        36.11121         2.16418
O         40.77088        26.57538         1.13388
H         40.61661        27.18651         1.89203
O         37.96643        40.01579         2.10574
H         37.40529        40.61322         2.65458
O         35.92013        44.54152         1.93385
H         36.39508        45.36439         2.20863
O         47.79330        31.84650         2.19901
H         47.48399        31.04224         2.67007
O         34.45478        42.35125         2.03427
H         34.69249        43.29773         2.20125
O         36.13712        39.48061        -1.00804
H         36.97513        39.22414        -1.46609
O         50.44443        33.36228         2.15832
H         49.90784        32.67653         2.62285
O         34.38761        28.95637        -1.01168
H         33.64380        29.17369        -1.60924
O         48.98789        28.47115         1.45072
H         49.64375        28.81844         2.09452
O         45.86536        33.33563         2.06669
H         45.14610        33.10788         2.69767
O         48.19048        29.43871        -1.92515
H         47.46360        29.15378        -2.52803
O         41.99105        44.23221        -1.82806
H         41.27181        43.92388        -2.42383
O         36.24769        33.71437         2.32334
H         35.32016        33.92953         2.58428
O         34.73242        28.65811         2.59807
H         34.98478        29.53919         2.97399
O         32.19844        41.24369        -3.23615
H         33.13392        41.45341        -3.44287
O         35.89183        30.93187        -0.66329
H         36.56183        31.55013        -1.07487
