         762
 CSIRO Nanostructure Databank - Neutral Graphene Oxide Data Set
C         22.95627        24.30183         1.84000
C         21.79287        24.96614         1.64681
C         22.86430        27.17460         1.72192
C         21.75367        26.40598         1.54578
C         22.80360        28.63302         1.40139
C         21.61669        29.43789         1.71081
C         22.81493        31.54531         1.23605
C         21.63144        30.79341         1.59677
C         22.75874        32.99370         1.03187
C         21.61759        33.75854         1.28520
C         22.65180        35.84068         0.52234
C         21.59619        35.16691         1.09284
C         22.59072        37.33565         0.25576
C         22.08788        38.12503         1.46066
C         22.76916        40.14409         0.29726
C         22.20355        39.47096         1.46208
C         22.36433        41.37688        -0.18091
C         21.76661        42.51422         0.46589
C         22.69918        44.39010        -0.99234
C         21.88171        43.82857         0.06123
C         22.75797        45.92821        -1.22129
C         21.55818        46.62893        -0.62329
C         22.89581        48.59744        -0.04208
C         21.64370        47.87582        -0.11497
C         25.54256        22.96771         1.16732
C         25.57247        24.36140         1.63795
C         24.23190        25.02550         2.00227
C         25.46854        27.29025         1.75269
C         24.17828        26.52854         2.00192
C         25.39093        28.77384         1.50532
C         24.07905        29.40575         1.17405
C         25.25294        31.57602         0.76136
C         24.03187        30.88323         1.11333
C         25.18002        33.00959         0.47986
C         23.93190        33.65918         0.54867
C         25.15033        35.83031        -0.13592
C         23.83107        35.06296         0.13524
C         25.11051        37.30572        -0.10735
C         23.93230        37.96655        -0.06830
C         25.08479        40.11251        -1.04729
C         23.83450        39.40988        -0.43416
C         25.11689        41.59925        -1.28794
C         23.90911        42.22696        -1.52618
C         25.52466        44.67266        -1.73510
C         23.61036        43.63289        -1.69081
C         25.39572        46.01488        -1.20361
C         24.08238        46.49523        -0.58830
C         25.36191        48.73690        -0.28166
C         24.09170        48.00315        -0.33446
C         25.44993        50.07669         0.26023
C         27.87380        23.09704         0.45890
C         26.62410        22.38423         0.60778
C         27.91482        24.48458         0.74300
C         26.74167        25.19443         1.24648
C         27.86526        27.38724         0.92595
C         26.70709        26.58814         1.31989
C         27.86225        28.77537         0.82690
C         26.62220        29.53078         1.12222
C         27.65371        31.64734         0.10460
C         26.44946        30.89710         0.60905
C         27.65410        33.00693         0.77915
C         26.38982        33.75393         0.37626
C         27.54654        35.90504         0.59351
C         26.39462        35.14994         0.20483
C         27.63058        37.41395         0.46491
C         26.37902        38.09581        -0.02627
C         27.72452        40.07237        -1.04313
C         26.41009        39.36472        -0.85856
C         27.73180        41.52299        -1.50335
C         26.43455        42.29933        -1.58501
C         27.80704        44.44906        -1.02054
C         26.53815        43.79763        -1.44001
C         27.82673        45.94255        -0.91552
C         26.55912        46.69588        -0.93718
C         27.79546        48.87467        -0.83768
C         26.55667        48.10026        -0.62293
C         27.83313        50.31069        -0.35360
C         26.62223        50.76874         0.34468
C         30.21727        20.30236        -0.41483
C         29.06941        20.98259        -0.10197
C         30.26622        23.12268        -0.18187
C         29.05851        22.40417         0.05128
C         30.26422        24.53641         0.01527
C         29.13025        25.19089         0.52712
C         30.38696        27.42011         0.46822
C         29.15043        26.64926         0.78691
C         30.26931        28.84672        -0.00906
C         29.02869        29.57341         0.45168
C         30.18426        31.77148        -0.15986
C         28.97471        30.93454         0.27443
C         30.22267        33.22085         0.42970
C         28.93051        33.81198         0.67643
C         30.47912        36.26106         0.97280
C         28.64273        35.15259         1.05939
C         30.28945        37.43989         0.32585
C         28.97865        38.18719         0.31019
C         30.26833        40.23194        -0.75058
C         28.98166        39.55347        -0.37599
C         30.32500        41.57347        -1.14112
C         29.06543        42.27573        -1.49884
C         30.36219        44.52989        -1.17066
C         29.09005        43.77744        -1.38573
C         30.35413        45.90571        -1.13268
C         29.09123        46.66832        -1.20943
C         30.37963        48.86647        -0.82278
C         29.09815        48.16763        -1.11021
C         30.34924        50.27776        -0.51366
C         29.16947        50.96410        -0.21122
C         30.34946        53.07575         0.20429
C         29.20386        52.34356         0.19588
C         32.68062        18.81880        -1.03991
C         32.66435        20.24745        -0.90053
C         31.45591        20.97948        -0.62112
C         32.70682        23.08819        -0.75125
C         31.47362        22.40495        -0.53953
C         32.71597        24.56874        -0.83856
C         31.44523        25.31617        -0.42197
C         32.78053        27.41655        -0.21045
C         31.58723        26.72414        -0.05062
C         32.83181        28.86322        -0.08936
C         31.56696        29.59072         0.21624
C         32.72729        31.79844        -0.38052
C         31.51048        31.06841         0.10346
C         32.72744        33.26913        -0.07778
C         31.46961        33.88616         0.50181
C         32.90568        36.03480         0.59016
C         31.63022        35.32902         0.86708
C         32.84319        37.44214         0.07809
C         31.52309        38.09576        -0.18477
C         32.81760        40.27702        -0.35365
C         31.50211        39.58343        -0.25409
C         32.83419        41.58322        -1.06468
C         31.55095        42.32429        -1.17862
C         32.81975        44.46287        -1.27833
C         31.60148        43.76347        -1.24101
C         32.87712        45.94343        -1.36079
C         31.57909        46.71990        -1.29667
C         32.85420        48.80430        -0.67043
C         31.58801        48.16732        -0.91919
C         32.98177        50.32774        -0.70504
C         31.61686        51.03775        -0.65875
C         32.87092        53.16558         0.04134
C         31.59186        52.51446        -0.34066
C         33.00099        54.55602         0.04535
C         35.12632        18.72237        -1.19523
C         33.85624        18.09948        -1.16109
C         35.15323        20.22576        -1.43567
C         33.88501        20.94665        -1.01984
C         35.17560        23.07302        -1.17161
C         33.89463        22.35422        -0.94269
C         35.20358        24.57937        -1.05343
C         33.97549        25.32114        -0.74907
C         35.24853        27.43732        -0.48925
C         34.01154        26.69897        -0.50229
C         35.25971        28.84570        -0.45914
C         34.00311        29.55558        -0.30928
C         35.29813        31.74897        -0.36975
C         34.00915        31.01678        -0.70985
C         35.26608        33.17922        -0.29013
C         34.07889        33.91180        -0.05732
C         35.30347        36.04438         0.32038
C         34.14083        35.31809         0.20461
C         35.28008        37.49950         0.75940
C         34.09197        38.22544         0.16500
C         35.32969        40.33561        -0.11063
C         34.10878        39.54351        -0.18491
C         35.34357        41.65977        -0.46624
C         34.15773        42.28626        -1.12462
C         35.37005        44.55901        -1.29871
C         34.11006        43.76112        -1.38694
C         35.33506        46.01012        -0.99631
C         34.10781        46.67222        -0.96071
C         35.28451        48.69671        -0.10912
C         34.03929        48.06550        -0.63084
C         35.28300        50.11658         0.42063
C         34.02321        50.93068         0.25702
C         34.92853        53.06611         1.24312
C         33.94366        52.33372         0.51561
C         35.14783        54.44587         1.16596
C         34.16453        55.20059         0.50597
C         37.64458        15.88070        -1.06768
C         36.42236        16.57767        -1.09325
C         37.60896        18.71564        -0.87615
C         36.33865        17.98372        -1.10326
C         37.64556        20.16927        -1.23659
C         36.40892        20.89339        -0.93511
C         37.73098        23.04353        -1.28803
C         36.46422        22.37344        -0.74688
C         37.76684        24.55524        -1.14372
C         36.50589        25.20498        -0.68413
C         37.79972        27.39463        -0.64474
C         36.53036        26.71582        -0.45620
C         37.79659        28.88514        -0.89265
C         36.48829        29.57980        -0.52094
C         37.82138        31.68356        -0.53565
C         36.49779        30.99304        -0.44976
C         37.85104        33.19578        -0.44152
C         36.54393        33.93600        -0.39268
C         37.80371        35.98626         0.59553
C         36.57258        35.39621        -0.01391
C         37.81648        37.49137         0.84191
C         36.58568        38.21698         0.49494
C         37.86141        40.44553         0.46277
C         36.54097        39.67533         0.45294
C         37.88964        41.77402        -0.16983
C         36.58240        42.46417        -0.30722
C         37.86988        44.52430        -1.18778
C         36.59357        43.87723        -0.77514
C         37.86232        46.03964        -1.15355
C         36.57562        46.70500        -0.82721
C         37.80586        48.77263        -0.45530
C         36.57661        48.04702        -0.46057
C         37.76877        50.16402        -0.13573
C         36.64464        50.75620         0.42663
C         37.81749        52.93858         0.76958
C         36.82337        52.03219         1.04893
C         37.65686        54.42303         0.92860
C         36.47073        54.99198         1.74007
C         37.57415        57.26171         1.51673
C         36.51246        56.50040         1.80403
C         40.19163        14.41992        -1.38221
C         40.16068        15.80393        -1.12533
C         38.89505        16.50563        -1.00451
C         40.19027        18.69766        -0.96175
C         38.91342        17.96023        -0.79365
C         40.20683        20.06180        -1.10778
C         38.97397        20.85295        -1.34622
C         40.19767        23.04037        -1.13825
C         39.01846        22.33120        -1.21641
C         40.20635        24.47714        -0.88423
C         39.03748        25.22172        -0.81502
C         40.25475        27.35961        -0.47014
C         39.02896        26.67108        -0.60220
C         40.32947        28.85037        -0.65033
C         39.01916        29.48365        -0.14235
C         40.28147        31.65851        -0.12069
C         39.07723        30.98100        -0.24659
C         40.29157        33.10501         0.02562
C         39.09404        33.82194         0.03239
C         40.39894        35.97345         0.50285
C         39.08089        35.20415         0.54199
C         40.37313        37.44926         0.41432
C         39.15445        38.19097         0.82817
C         40.36726        40.32538         0.01966
C         39.15519        39.69203         0.57382
C         40.35297        41.72035        -0.27905
C         39.08799        42.39797        -0.46289
C         40.42583        44.57534        -0.88504
C         39.13946        43.76631        -1.02915
C         40.35761        46.04684        -0.75222
C         39.13747        46.73726        -0.87255
C         40.29775        48.89043        -0.52287
C         39.06780        48.14156        -0.63795
C         40.28581        50.30834        -0.49474
C         38.97188        50.97650        -0.40473
C         40.24019        53.14962         0.08587
C         38.93560        52.44311        -0.06592
C         40.16766        54.60263         0.39162
C         38.82240        55.28922         0.54516
C         40.13069        57.32429         1.36699
C         38.81362        56.81178         0.76920
C         40.24102        58.74431         1.73294
C         42.61057        14.37515        -1.27120
C         41.40398        13.72323        -1.46668
C         42.65227        15.77003        -0.99082
C         41.40616        16.50670        -0.95929
C         42.63357        18.63092        -0.65093
C         41.42447        17.93649        -0.85279
C         42.71077        20.04723        -0.77656
C         41.49307        20.78050        -1.21277
C         42.76724        22.99369        -0.92810
C         41.48440        22.29120        -1.25577
C         42.78263        24.47941        -0.69114
C         41.46237        25.13662        -0.47144
C         42.80819        27.36137        -0.19365
C         41.48727        26.62829        -0.20923
C         42.78136        28.81957         0.06723
C         41.56892        29.51672        -0.06329
C         42.77745        31.62755         0.16182
C         41.54467        30.93182         0.02213
C         42.78197        33.07952         0.08842
C         41.56756        33.79070         0.13214
C         42.77575        35.91040        -0.17727
C         41.59692        35.22110         0.10543
C         42.70769        37.36765        -0.40271
C         41.50456        38.12947         0.00756
C         42.79048        40.27535        -0.29166
C         41.54655        39.57494        -0.09967
C         42.80239        41.70034        -0.24613
C         41.57808        42.43516        -0.32395
C         42.75663        44.60446        -0.03793
C         41.61171        43.87356        -0.37605
C         42.74500        46.03538        -0.05582
C         41.55836        46.74256        -0.38170
C         42.72413        48.94695        -0.27821
C         41.53248        48.19336        -0.38863
C         42.72415        50.34330        -0.47090
C         41.49060        51.05447        -0.52609
C         42.63420        53.27494        -0.55689
C         41.48824        52.51714        -0.43790
C         42.62895        54.75815        -0.35951
C         41.30357        55.49687        -0.05083
C         42.69805        57.37858         1.06952
C         41.42562        56.63802         0.95709
C         42.68380        58.65091         1.59278
C         41.45788        59.33619         1.88180
C         45.15763        15.76964        -0.58387
C         43.88876        16.42827        -0.73181
C         45.12980        18.56631        -0.06790
C         43.85060        17.85067        -0.36023
C         45.09312        20.06331         0.02527
C         43.88440        20.75601        -0.48450
C         44.97001        22.84036         0.15439
C         43.90787        22.18010        -0.46043
C         44.78122        24.18213         0.60256
C         43.88473        25.08506         0.10846
C         45.28985        27.31180         0.60878
C         44.06567        26.57191         0.10963
C         45.26910        28.76484         0.51664
C         44.02003        29.49498         0.30965
C         45.25148        31.69717         0.60384
C         43.99207        30.91259         0.31579
C         45.23024        33.05383        -0.05723
C         44.02926        33.77809        -0.10748
C         45.22639        35.96062        -0.36003
C         44.01352        35.21722        -0.30784
C         45.26796        37.37989        -0.35300
C         44.01608        38.12462        -0.54492
C         45.24768        40.27759        -0.33885
C         44.02113        39.58253        -0.35195
C         45.24580        41.69984        -0.25319
C         44.03726        42.39957        -0.18656
C         45.28697        44.56919         0.42328
C         43.99826        43.83369         0.21757
C         45.27100        46.07358         0.59420
C         43.94787        46.79679         0.39793
C         45.25917        49.06802         0.20101
C         43.95944        48.29534         0.21181
C         45.30290        50.42787        -0.40377
C         43.99632        51.04723        -0.72919
C         45.20365        53.28021        -0.57008
C         43.94000        52.63618        -0.84820
C         45.30372        54.77791        -0.39860
C         43.95029        55.46971        -0.12172
C         45.06446        56.94842         1.51049
C         43.94166        56.66755         0.76938
C         46.33982        16.43445        -0.39631
C         47.68088        18.66208        -0.05587
C         46.42379        17.93299        -0.54698
C         47.66820        20.03093         0.11376
C         46.39762        20.79995         0.16740
C         47.64808        23.09909         0.12172
C         46.36090        22.29787         0.02296
C         47.75277        24.52257         0.57252
C         46.66659        25.24574         1.02811
C         47.75496        27.40632         1.29733
C         46.49109        26.67493         0.93811
C         47.77963        28.82454         0.77229
C         46.50232        29.50240         0.54882
C         47.73949        31.61185         0.13191
C         46.52008        30.91100         0.35329
C         47.77552        32.99002        -0.13613
C         46.49474        33.67917        -0.40297
C         47.73926        35.89005        -0.07527
C         46.48673        35.22227        -0.49654
C         47.72757        37.41542         0.04286
C         46.47085        38.12823        -0.25828
C         47.74189        40.26375        -0.34700
C         46.49188        39.54299        -0.33712
C         47.79251        41.66703        -0.34992
C         46.52688        42.43527        -0.36161
C         47.82944        44.60443         0.19267
C         46.53408        43.90901        -0.08331
C         47.82742        46.09461         0.11546
C         46.58639        46.82788         0.51626
C         47.78115        49.02514        -0.16188
C         46.56582        48.33823         0.32280
C         47.78639        50.38981        -0.46028
C         46.49635        51.09440        -0.57143
C         47.74599        53.32281        -0.62950
C         46.46088        52.55706        -1.03222
C         47.70040        54.51039         0.26973
C         46.42995        55.16190         0.53153
C         46.27956        56.20388         1.40861
C         50.13556        18.62067         0.19203
C         48.95022        17.97259        -0.02591
C         50.21863        20.05520         0.29228
C         48.94909        20.79668         0.04902
C         50.28712        23.07458         0.05116
C         48.94745        22.30606        -0.02465
C         50.22039        24.46506         0.64468
C         49.03371        25.22727         0.60960
C         50.26529        27.33261         1.07100
C         48.99878        26.61481         0.91524
C         50.27918        28.84141         0.96867
C         48.97854        29.48661         0.67136
C         50.33474        31.58439         0.08002
C         49.01263        30.85414         0.12518
C         50.29917        33.05730        -0.08154
C         49.01309        33.73496        -0.22623
C         50.24334        35.89408        -0.05323
C         48.99272        35.13601        -0.24098
C         50.24678        37.39847         0.04134
C         48.98979        38.15629        -0.11900
C         50.23110        40.24492        -0.68519
C         48.98264        39.51095        -0.35520
C         50.24036        41.70890        -0.58650
C         49.04954        42.37990        -0.38243
C         50.27103        44.60581        -0.45062
C         49.08608        43.84066        -0.09718
C         50.20795        46.05539        -0.57810
C         48.97998        46.77354        -0.15187
C         50.33162        48.97838        -0.22680
C         49.03523        48.25520        -0.02805
C         50.28983        50.43312        -0.49794
C         49.04662        51.08643        -0.64922
C         50.26922        53.21970        -0.09395
C         49.05617        52.57325        -0.65240
C         50.15281        54.40247         0.57014
C         48.87139        54.99110         0.81743
C         52.66101        20.06179         0.79647
C         51.40659        20.73876         0.51433
C         52.73434        22.93411         0.76742
C         51.40714        22.22100         0.66015
C         52.76650        24.40521         0.64140
C         51.51043        25.11709         1.10159
C         52.79329        27.31504         0.58964
C         51.49336        26.57137         0.69411
C         52.78000        28.74310         0.99021
C         51.57844        29.56393         0.81978
C         52.76848        31.78744         0.65228
C         51.57985        30.94283         0.60427
C         52.76723        33.10368         0.08730
C         51.50197        33.73625        -0.18068
C         52.79080        35.93682        -0.53828
C         51.50044        35.19115        -0.45149
C         52.82579        37.39802        -0.26747
C         51.55174        38.14166        -0.10833
C         52.84557        40.28221        -0.53809
C         51.55640        39.54070        -0.62580
C         52.83126        41.70348        -0.57598
C         51.53246        42.40680        -0.80258
C         52.77481        44.65876        -0.60181
C         51.51033        43.91583        -0.79202
C         52.78184        46.01456        -0.68088
C         51.52294        46.79975        -0.81999
C         52.76537        48.94836        -0.53335
C         51.58519        48.25356        -0.54136
C         52.76901        50.39466        -0.37524
C         51.54021        51.10844        -0.46015
C         52.81746        53.20764         0.00923
C         51.56863        52.61422        -0.57588
C         53.86219        20.69356         0.81916
C         55.26525        22.86806         0.20636
C         53.96023        22.12848         0.46683
C         55.25352        24.37443         0.25559
C         53.96745        25.09333         0.50112
C         55.24658        27.16294         1.02108
C         54.02984        26.51618         0.68570
C         55.19564        28.49943         1.52867
C         53.93564        29.19062         1.59688
C         55.19597        32.02372         1.06233
C         53.95032        31.40592         1.32177
C         55.21342        33.18472         0.27907
C         53.99624        33.82448        -0.04484
C         55.26477        35.95165        -0.36188
C         54.06929        35.22134        -0.38565
C         55.25907        37.40230        -0.45296
C         54.08653        38.12483        -0.52425
C         55.30104        40.29178        -0.39346
C         54.05857        39.57417        -0.46620
C         55.27805        41.72491        -0.37657
C         54.03117        42.42402        -0.45717
C         55.28062        44.65002        -0.29398
C         53.98320        43.90335        -0.10447
C         55.32208        46.01585        -0.42751
C         54.06946        46.74806        -0.73699
C         55.32086        48.95891        -0.42097
C         54.06083        48.24796        -0.72447
C         55.27593        50.36776        -0.25337
C         54.00469        51.07393        -0.20437
C         53.96283        52.48675         0.09034
C         57.72948        22.89569         0.65231
C         56.56161        22.20375         0.36091
C         57.78207        24.28829         0.82302
C         56.56338        25.08368         0.57659
C         57.68986        27.20885         1.26512
C         56.50763        26.49235         1.02839
C         57.65884        28.61027         1.49493
C         56.41120        29.15956         1.80426
C         57.66410        31.78420         0.95968
C         56.45557        31.43138         1.47663
C         57.76869        33.05236         0.19462
C         56.49598        33.80592        -0.09367
C         57.76614        35.91991        -0.17883
C         56.54228        35.27168        -0.21525
C         57.79583        37.41202        -0.45204
C         56.50768        38.10588         0.01965
C         57.75772        40.29090        -0.24141
C         56.52505        39.59348        -0.25575
C         57.74940        41.73174        -0.27297
C         56.51979        42.41785        -0.25783
C         57.81990        44.62644        -0.07567
C         56.50834        43.87792        -0.03573
C         57.77162        46.08540        -0.28517
C         56.57434        46.77050        -0.38893
C         57.75724        48.98201        -0.36269
C         56.54654        48.24337        -0.41064
C         57.71203        50.38473        -0.27619
C         56.50672        51.06382        -0.18165
C         60.34557        24.41030         1.04086
C         59.01646        24.98560         1.27064
C         60.23971        27.28458         1.47722
C         58.97798        26.50759         1.47132
C         60.19854        28.74570         1.42409
C         58.88972        29.42257         1.21531
C         60.18152        31.68078         1.01537
C         58.89271        30.93304         0.96869
C         60.19920        33.12238         0.73812
C         59.02090        33.81861         0.34501
C         60.25500        35.93704         0.09907
C         59.01069        35.21435         0.07591
C         60.28389        37.36185        -0.11774
C         59.00661        38.11290         0.17066
C         60.22049        40.25803        -0.39317
C         59.00515        39.58366        -0.19284
C         60.21969        41.70962        -0.54284
C         59.01153        42.44648        -0.36883
C         60.24628        44.56337        -0.68811
C         59.05031        43.86941        -0.39150
C         60.28373        46.02983        -0.68856
C         59.07827        46.77257        -0.26304
C         60.26868        48.91950        -0.91958
C         59.07560        48.29330        -0.33808
C         61.46728        25.16206         1.23815
C         61.42440        26.57178         1.48008
C         61.33836        29.52932         1.41543
C         61.33069        30.94419         1.23653
C         61.40668        33.86776         0.74737
C         61.43445        35.21053         0.40571
C         61.44801        38.10340        -0.34665
C         61.42615        39.49605        -0.45893
C         61.40415        42.42173        -0.83137
C         61.41347        43.80349        -0.92975
C         61.40636        46.75110        -1.02606
C         61.38394        48.17820        -1.16715
O         31.50139        52.04658        -1.73182
O         53.89358        30.40689         2.29778
O         54.43389        22.34641        -0.90316
O         32.23257        37.45676        -1.28697
O         37.57473        36.51088         1.93692
O         31.63920        30.44525         1.41118
O         52.37988        37.88766         1.06509
O         59.30106        47.59616         0.93616
O         27.05183        41.71149        -2.77566
O         43.72183        27.02250        -1.27604
O         37.78977        45.27661        -2.41425
O         40.79413        56.37824         2.25407
O         37.05228        40.37068         1.66840
O         52.02815        35.59628        -1.76205
O         26.76845        38.17925         1.38350
O         32.43451        32.74352        -1.44238
O         51.95813        22.56614         1.97892
O         43.27470        55.55220        -1.42287
O         46.55077        34.41163        -1.68739
O         50.31886        28.14584         2.29819
O         37.65758        23.91615        -2.44582
O         32.55638        35.71681         1.97699
O         27.20533        39.17126        -2.06937
O         30.09978        27.10505         1.85574
O         37.80284        54.96447        -0.44778
O         25.10742        24.49180         3.02787
O         54.15924        47.51134        -2.00215
O         32.25190        46.47989        -2.57877
O         57.20041        44.24381         1.21529
O         23.37150        28.80625         0.03371
O         33.65724        41.51775        -2.27847
O         44.63990        43.92790         1.55473
O         50.66430        46.48819        -1.95758
O         28.93102        39.41774         1.09166
O         49.85245        48.66375         1.14692
O         41.37910        25.65700         0.90191
O         27.57459        49.98525        -1.76687
O         38.19656        18.41506         0.43002
O         35.16295        48.97762         1.35167
O         48.95482        21.52177        -1.25911
O         38.24809        20.41614        -2.58972
O         36.61266        34.99820        -1.42027
O         51.51069        43.15009        -2.08297
O         38.68355        52.01294        -1.43164
O         51.98474        26.93730        -0.60611
O         43.22574        37.73081        -1.72683
O         22.70116        41.51654        -1.53913
O         24.96158        27.05689         3.11170
O         29.13831        43.12485        -2.68599
O         57.20746        33.06528        -1.16070
O         39.85663        35.41784         1.75435
O         58.83083        29.97756        -0.16171
O         43.95627        51.73356        -2.00037
O         40.01507        43.96691        -2.16985
O         37.97687        32.52141        -1.74114
O         48.61436        53.39300        -1.80581
O         31.77337        25.07923        -1.83825
O         24.35813        35.28775        -1.22585
O         39.37622        39.13644         1.91174
O         35.18889        23.89441        -2.35645
O         46.79148        47.72806         1.63890
O         36.56344        25.70022         0.65195
O         24.07199        39.47250        -1.87920
O         44.44003        46.43327         1.72304
O         36.47677        43.61028         0.65680
O         27.89058        45.08704         0.30319
O         49.78776        30.92219        -1.12867
O         50.28492        36.56567         1.25095
O         45.57153        20.48208         1.35419
O         56.05350        24.95162        -0.81547
O         46.92911        22.92799        -1.16719
O         46.45100        43.45715        -1.46716
O         34.89052        44.14496        -2.59925
O         48.58266        44.09665         1.33126
O         58.86361        25.58565         2.61519
O         44.42703        17.97454         1.04393
O         44.44239        49.01374         1.40637
O         32.07171        40.28655         0.91382
O         47.61764        36.55279         1.22923
O         40.45638        53.66231         1.45917
O         35.83603        52.32196         2.00977
O         43.10892        23.96965        -2.00149
O         29.51774        35.85072         1.88167
O         45.63337        24.54627         1.63369
O         29.04354        47.49223        -2.41859
O         24.48356        44.27949        -2.58405
O         56.37808        30.40794         2.42537
O         50.88069        39.69205        -1.90993
O         26.14301        29.47399         2.53380
O         41.61518        21.51193        -2.49019
O         36.55759        22.62894         0.71451
H         36.33498        21.80142         1.19231
O         53.79154        43.88766         1.36278
H         54.66235        43.70331         1.77878
O         30.11825        28.75014        -1.45831
H         30.16452        29.66362        -1.82840
O         37.92533        29.06818        -2.32003
H         38.13262        30.00915        -2.50619
O         46.42033        18.20397        -1.99124
H         47.26414        17.87688        -2.36864
O         35.20611        20.36194        -2.90818
H         36.15175        20.40869        -3.17913
O         45.24685        31.96783         2.06083
H         45.24799        31.10163         2.52185
O         46.39218        52.50887        -2.48103
H         47.24298        52.89030        -2.81344
O         51.52931        25.14876         2.56408
H         51.56144        24.20976         2.86702
O         50.72279        23.30915        -1.31701
H         50.21684        22.69692        -1.90307
O         47.74807        27.49523         2.76440
H         48.65719        27.78590         3.02989
O         27.46466        31.88463        -1.32911
H         27.20965        31.03780        -1.75240
O         45.75639        55.24212        -1.70305
H         44.99500        55.14558        -2.32034
O         58.89085        38.04599         1.62268
H         59.65394        38.52728         2.00489
O         56.42335        37.94777         1.46522
H         55.59087        38.36779         1.76811
O         57.91721        37.59384        -1.88041
H         57.27549        37.00361        -2.32816
O         24.11749        45.87936         0.73971
H         24.89767        46.22958         1.21998
O         30.08802        31.84856        -1.60463
H         29.18862        32.19982        -1.82445
O         38.83258        29.13070         1.24640
H         39.56701        29.51344         1.77050
O         21.66988        37.56840        -0.83604
H         22.12565        37.33381        -1.67177
O         33.57456        50.59116        -2.00978
H         33.05097        51.32626        -2.41639
O         38.71219        57.44924        -0.52635
H         38.16984        56.85857        -1.09625
O         40.43446        29.11908        -2.07485
H         41.26229        28.71188        -2.40693
O         40.83708        56.05617        -1.29557
H         41.62590        56.36101        -1.80079
O         51.60841        52.92681        -2.01508
H         52.41135        52.50246        -2.38508
O         27.52738        32.72644         2.20784
H         27.61016        33.56948         2.70159
O         36.61668        54.57712         3.11077
H         36.45743        53.60504         3.15854
O         35.06108        37.53957         2.19961
H         35.87045        37.16789         2.62443
O         34.05519        30.92805        -2.16927
H         33.69070        31.77690        -2.51696
O         22.69861        46.22633        -2.62041
H         23.35451        45.66128        -3.09042
H         22.95187        23.20938         1.95241
H         20.84957        24.41100         1.55269
H         20.79214        26.88150         1.30636
H         20.71969        28.93129         2.09536
H         20.70919        31.34475         1.82651
H         20.71114        33.28501         1.68468
H         20.68843        35.71908         1.37505
H         21.61816        37.59841         2.30432
H         21.77184        40.07462         2.27540
H         21.22351        42.32393         1.40421
H         21.35693        44.57003         0.68475
H         20.57304        46.15671        -0.75346
H         22.84962        49.65880         0.24069
H         20.73566        48.39454         0.22590
H         24.63178        22.37693         1.33029
H         24.55810        50.50833         0.73624
H         26.55180        21.33785         0.28577
H         26.64980        51.70522         0.91985
H         30.17314        19.20812        -0.48849
H         28.15285        20.40372         0.06675
H         30.36286        54.09017         0.62745
H         28.27337        52.80674         0.55212
H         31.73713        18.25858        -1.00285
H         32.18319        55.16481        -0.36521
H         33.79234        17.00150        -1.16506
H         34.27123        56.28838         0.39704
H         37.59197        14.78576        -1.14695
H         35.50377        15.98100        -1.18395
H         37.49245        58.34804         1.68001
H         35.63780        56.97290         2.27883
H         39.25559        13.86521        -1.52839
H         39.32419        59.34208         1.83309
H         43.54617        13.80351        -1.33155
H         41.39348        12.64555        -1.68012
H         43.62432        59.20886         1.70430
H         41.51570        60.39499         2.17160
H         45.18224        14.66946        -0.58995
H         45.03292        57.76559         2.24390
H         47.26036        15.84644        -0.26838
H         47.10836        56.50419         2.06414
H         51.05746        18.02706         0.25608
H         48.96181        16.87962        -0.13947
H         51.04056        54.92948         0.94656
H         48.84697        55.89271         1.44441
H         52.63653        18.97889         0.98451
H         52.84074        54.28493         0.22614
H         54.78230        20.11818         0.99516
H         54.88031        52.98990         0.42560
H         58.65216        22.31155         0.78268
H         56.60248        21.11544         0.21835
H         58.65037        50.95449        -0.23248
H         56.52620        52.15586        -0.07674
H         60.43352        23.37129         0.69383
H         60.24521        49.98587        -1.18544
H         62.45526        24.69692         1.11089
H         62.38600        27.09952         1.54230
H         62.32286        29.05528         1.53435
H         62.30917        31.44456         1.24548
H         62.35291        33.37853         1.01548
H         62.39869        35.73760         0.42891
H         62.41168        37.58796        -0.47138
H         62.38145        40.00797        -0.63386
H         62.34633        41.88244        -0.99456
H         62.36099        44.30706        -1.16166
H         62.33642        46.23563        -1.30162
H         62.28237        48.66739        -1.56948
