         429
 CSIRO Nanostructure Databank - Neutral Graphene Oxide Data Set
C          0.91399         4.32632        -1.91233
C         -0.22538         4.82916        -1.30261
C          1.03062         6.73922        -0.41895
C         -0.17288         6.01474        -0.55994
C          1.11388         7.96421         0.35262
C         -0.09122         8.54487         0.89871
C          1.15555        10.40063         1.91964
C         -0.09763         9.72775         1.55943
C          1.16708        11.85347         2.17647
C          0.07621        12.61632         1.90883
C          1.16824        14.73042         2.50036
C          0.07596        14.04582         2.04955
C          1.19729        16.19766         2.40250
C          0.00355        16.92187         2.22049
C          1.24404        18.94409         1.69327
C          0.03167        18.26890         1.87095
C          1.28911        20.30238         1.02495
C          0.01809        21.10920         1.08627
C          1.20896        23.26446         1.54401
C         -0.01108        22.43761         1.23384
C          1.24979        24.62978         0.86885
C          0.01960        25.33941         0.57467
C          1.28277        27.10338        -0.56439
C          0.00450        26.50365        -0.12443
C          1.37852        28.41796        -1.30338
C          0.15999        29.12809        -1.72017
C          1.44055        31.16997        -2.14925
C          0.21128        30.40809        -2.15533
C          1.49069        32.47988        -2.72579
C          0.43438        32.99391        -3.53055
C          1.65493        35.06008        -3.95100
C          0.53207        34.23343        -4.14517
C          1.78815        36.31243        -4.65589
C          3.32535         4.48906        -2.36778
C          2.15221         5.01096        -1.78529
C          3.44927         6.93651        -0.91645
C          2.20975         6.23594        -1.03876
C          3.52012         8.16069        -0.17400
C          2.34158         8.63453         0.48466
C          3.64934        10.71193         1.24962
C          2.45630         9.82264         1.35222
C          3.66843        11.95356         1.87800
C          2.46103        12.42470         2.71564
C          3.68764        14.72001         2.87416
C          2.39760        13.96555         2.87003
C          3.66921        16.22372         2.76269
C          2.41953        16.91036         2.36825
C          3.73432        18.99195         1.87913
C          2.45925        18.27770         1.99242
C          3.74468        20.38647         1.58654
C          2.51198        21.10302         1.40056
C          3.72702        23.21910         1.27696
C          2.49451        22.48699         1.34964
C          3.71878        24.60239         0.95684
C          2.46445        25.25882         0.68048
C          3.81092        27.15062        -0.36581
C          2.48451        26.72526         0.29039
C          3.79285        28.63816        -0.65936
C          2.63283        29.21146        -1.16377
C          3.76973        31.40112        -1.38340
C          2.60597        30.60117        -1.56748
C          3.72683        32.77035        -1.75849
C          2.64921        33.28997        -2.50943
C          3.82007        35.45609        -2.88856
C          2.71782        34.62113        -3.08704
C          3.82672        36.88943        -3.34373
C          2.81395        37.16388        -4.41580
C          5.74807         4.57895        -2.74312
C          4.56605         5.14380        -2.21802
C          5.86912         7.06277        -1.34175
C          4.62447         6.39218        -1.49886
C          5.92644         8.31900        -0.64861
C          4.75651         8.86666        -0.05930
C          6.05272        10.83194         0.69796
C          4.83453        10.15504         0.61497
C          6.08767        12.28083         1.11322
C          4.87835        12.74400         1.90382
C          6.18037        14.75868         2.47507
C          4.92863        14.01487         2.45000
C          6.21006        16.12458         2.53298
C          4.97046        16.94131         2.62329
C          6.18909        19.03671         2.03685
C          4.96679        18.34187         2.13329
C          6.21292        20.41663         1.73137
C          4.97447        21.10728         1.57224
C          6.19487        23.23795         1.31828
C          4.96557        22.52139         1.38254
C          6.18505        24.65137         1.11784
C          4.95519        25.31718         0.86733
C          6.15005        27.44910         0.54897
C          4.98418        26.68480         0.45804
C          6.15594        28.80822         0.06505
C          5.00901        29.39966        -0.50519
C          6.12135        31.59729        -0.65326
C          4.98712        30.81004        -0.85233
C          6.04992        33.06848        -0.76032
C          4.81809        33.67203        -1.35308
C          6.26180        35.64822        -2.20865
C          4.92270        35.04539        -2.00472
C          6.35804        36.73842        -3.17069
C          5.21502        37.27183        -3.77069
C          8.19392         4.60913        -3.02436
C          6.99993         5.20297        -2.55025
C          8.31598         7.08327        -1.64064
C          7.05365         6.45875        -1.85119
C          8.35879         8.34189        -0.94375
C          7.19986         8.96507        -0.47678
C          8.51190        10.84599         0.52634
C          7.28210        10.23462         0.24265
C          8.57200        12.04777         1.33415
C          7.41865        12.71043         1.69570
C          8.71055        14.74857         2.38215
C          7.44802        13.93617         2.59814
C          8.73992        16.12764         2.38527
C          7.48282        16.87171         2.61329
C          8.73429        19.03231         2.01099
C          7.46640        18.36301         2.36859
C          8.72626        20.40823         1.69459
C          7.45906        21.13151         1.60356
C          8.66529        23.25938         1.10998
C          7.42539        22.51335         1.39032
C          8.63916        24.73262         1.21775
C          7.40758        25.41653         1.13633
C          8.56751        27.61590         1.23169
C          7.38010        26.84496         1.00515
C          8.60612        29.01249         0.84961
C          7.44962        29.50632         0.04884
C          8.60655        31.83018        -0.14022
C          7.41995        30.98008        -0.38364
C          8.59583        33.14649        -0.53511
C          7.33776        33.86117        -0.83202
C          8.71126        35.66329        -1.93240
C          7.40786        35.10080        -1.64572
C          8.80383        36.79544        -2.82707
C          7.64043        37.27213        -3.46399
C         10.65183         4.62148        -3.32098
C          9.44726         5.22744        -2.83036
C         10.77375         7.23554        -2.07348
C          9.49234         6.46457        -2.12628
C         10.89591         8.08975        -0.82612
C          9.66372         8.82333        -0.43298
C         11.05847        10.52336         0.81375
C          9.79947        10.28341        -0.04627
C         11.16102        11.97444         1.23304
C          9.90621        12.55382         1.78728
C         11.22361        14.73677         2.19727
C          9.96607        14.00038         2.29914
C         11.21033        16.14681         2.17755
C          9.96802        16.86531         2.23285
C         11.18743        18.99610         1.91542
C          9.95364        18.29312         2.07765
C         11.18516        20.40975         1.72323
C          9.96763        21.09671         1.55352
C         11.26955        23.33154         1.26291
C          9.97275        22.53057         1.17257
C         11.09359        24.79796         1.62927
C          9.83422        25.45862         1.43250
C         10.90399        27.50260         2.14209
C          9.74373        26.87399         1.63214
C         10.92627        29.54420         1.66686
C          9.74378        29.87057         0.92592
C         11.04634        31.85892         0.29268
C          9.81486        31.17968         0.31892
C         11.08321        33.28169        -0.05725
C          9.80529        33.97329        -0.46570
C         11.16460        35.72743        -1.60323
C          9.88523        35.15479        -1.34733
C         11.24134        36.89421        -2.45488
C         10.06352        37.39247        -3.05412
C         13.11040         4.52713        -3.53193
C         11.92275         5.19565        -3.14849
C         13.23257         7.07251        -2.25889
C         12.02343         6.47355        -2.44124
C         13.42968         8.20070        -1.31070
C         12.23675         8.69633        -0.52696
C         13.53980        10.63116         0.22166
C         12.31239        10.02150         0.10921
C         13.64130        11.91279         0.97938
C         12.36370        12.60085         1.36274
C         13.76008        14.69039         1.95337
C         12.46246        13.94632         2.00376
C         13.73273        16.17387         2.20237
C         12.44157        16.90173         2.09188
C         13.68197        19.05400         1.59943
C         12.43041        18.28044         1.96432
C         13.62838        20.50384         2.01775
C         12.43987        21.15215         1.85016
C         13.56577        23.40335         2.43102
C         12.33948        22.62159         2.07266
C         13.50081        24.92594         2.46586
C         12.23999        25.53917         1.90635
C         13.42852        27.77708         2.15982
C         12.18765        26.95687         2.07190
C         13.45648        29.31182         1.79958
C         12.21471        29.99723         1.35959
C         13.51984        31.94465         0.55421
C         12.28584        31.23220         0.64369
C         13.54196        33.26935         0.03562
C         12.36795        33.90146        -0.39393
C         13.62739        35.79052        -1.33183
C         12.36477        35.15977        -1.08007
C         13.67764        37.00501        -2.10938
C         12.49065        37.51140        -2.68201
C         15.57578         4.48709        -3.72212
C         14.40197         5.11870        -3.37715
C         15.71354         7.16338        -2.55593
C         14.40850         6.59492        -3.06234
C         15.73414         8.67389        -2.31712
C         14.62572         9.05753        -1.34833
C         16.08529        10.70466        -0.14813
C         14.71650        10.13121        -0.49308
C         16.09397        12.18232         0.15524
C         14.92473        12.70264         0.89654
C         16.20341        14.86455         1.22325
C         14.84866        14.21210         1.00652
C         16.24948        16.20880         1.62398
C         15.01680        16.91343         2.02810
C         16.18289        19.05469         1.79158
C         14.98696        18.36906         1.88387
C         16.18233        20.52159         2.03270
C         14.89032        21.23989         2.28988
C         16.03602        23.46520         2.16347
C         14.88191        22.73057         2.29556
C         15.95211        24.92540         2.07913
C         14.71472        25.64590         1.95440
C         15.90277        27.75184         1.49118
C         14.68723        27.02957         1.88947
C         15.96446        29.22271         1.40752
C         14.74445        29.94454         1.35957
C         16.02382        31.95600         0.70179
C         14.76360        31.28834         0.90631
C         16.06942        33.33894         0.32063
C         14.77398        34.11472         0.20603
C         16.02724        35.95074        -0.91572
C         14.81337        35.25525        -0.78672
C         16.06664        37.22195        -1.59976
C         14.90612        37.69319        -2.23347
C         18.00772         4.75046        -4.43623
C         16.95811         4.99978        -3.37803
C         18.11862         7.38018        -3.31833
C         16.97428         6.45247        -2.88649
C         18.27630         8.55774        -2.40006
C         17.09664         9.16910        -1.87956
C         18.43762        11.10998        -1.19956
C         17.18004        10.30077        -1.09636
C         18.52351        12.27425        -0.25539
C         17.30841        12.88019         0.20933
C         18.63981        14.89374         0.86436
C         17.37772        14.21473         0.78416
C         18.68841        16.27448         1.22453
C         17.45368        16.96051         1.52907
C         18.65695        19.10764         1.18223
C         17.42682        18.37073         1.65627
C         18.65383        20.61811         1.36300
C         17.34751        21.30979         1.53234
C         18.64738        23.45966         1.57117
C         17.31263        22.80692         1.68003
C         18.94006        24.68095         2.13448
C         17.07383        25.70244         2.28596
C         18.54519        27.71849         1.69094
C         17.25075        27.00087         1.68224
C         18.48503        29.10765         1.37125
C         17.22735        29.84516         1.20914
C         18.49588        31.93926         0.67424
C         17.25126        31.24824         0.89438
C         18.53639        33.34156         0.36539
C         17.27240        34.04905         0.21122
C         18.21320        36.38184        -0.07078
C         17.19283        35.45214        -0.23800
C         18.35996        37.57390        -0.85078
C         17.27583        37.98180        -1.61891
C         19.18664         5.42737        -4.41937
C         20.60235         7.09048        -3.18879
C         19.37009         6.60507        -3.60795
C         20.70632         8.26034        -2.41907
C         19.57003         9.01783        -2.02533
C         20.89105        10.83775        -0.90446
C         19.68165        10.26372        -1.30393
C         20.95106        12.11066        -0.32501
C         19.78002        12.85282        -0.00283
C         21.06535        14.89413         0.67818
C         19.85162        14.20507         0.54659
C         21.10263        16.24513         1.04655
C         19.92952        16.96607         1.27655
C         21.13008        19.23440         1.15891
C         19.94392        18.44225         1.67603
C         21.03482        20.55167         0.87629
C         19.79393        21.30521         1.04747
C         21.01373        23.57601         0.75685
C         19.71362        22.80483         0.71048
C         21.08726        24.89664         1.09644
C         19.97155        25.56732         1.71041
C         20.98294        27.79711         1.68295
C         19.80016        27.01493         1.75453
C         20.93490        29.14931         1.43375
C         19.70719        29.81339         1.18989
C         20.92475        31.77883         0.34715
C         19.71198        31.19044         0.75212
C         20.97456        33.12499         0.03434
C         19.82790        33.92853         0.12270
C         20.94897        36.05979        -0.74596
C         20.05480        35.36499         0.02667
C         20.84520        37.49040        -0.92695
C         19.67288        38.19551        -0.95226
O         14.50313        16.52309         3.39901
O         16.47721         6.49589        -1.50862
O          7.79016        29.90913        -1.33101
O         13.15265         7.72734         0.07158
O         10.74767        28.73046         2.78637
O          6.50732        33.85052         0.38963
O          7.52070        17.80907         3.73892
O         16.97859        22.13430         0.36345
O          9.32929        22.76088        -0.13660
O         14.62208        11.89107         2.08895
O          3.03816        14.33935         4.13792
O          2.04506         9.59117         2.73802
O         10.32554        34.14693         0.89332
O         13.50189        28.81150         3.17413
O         16.58635        27.09706         0.37247
O         15.73941        20.75926         3.41122
O          4.42094        34.87304        -0.62532
O         19.21693        36.12245         0.87101
O          4.30494        16.83784         3.93929
O         13.44328        13.93063         3.13248
O          1.50548        27.10697        -2.01586
O         12.60345        22.92682         3.46916
O         18.06985        25.19496         3.11206
O         10.00302        12.81583         3.22146
O         10.21686         7.73508         0.40082
O         13.65347        19.09398         0.11291
H         12.83095        19.55967        -0.15416
O         10.65531         8.25587        -3.14892
H         10.45741         7.77787        -3.98283
O          7.46021        13.45189         3.97058
H          8.33956        13.02293         4.11336
O          2.64107        11.85661         4.02810
H          3.07640        12.54958         4.58099
O         17.68674         7.92158        -4.61406
H         16.99276         8.60921        -4.43602
O         18.65799        18.91208        -0.26897
H         17.91785        19.43171        -0.64805
O         18.33002        11.76335        -2.54953
H         19.18564        12.21743        -2.71056
O         17.38714         4.17582        -2.24860
H         16.96329         4.56503        -1.44845
O         11.84348        23.33466        -0.07895
H         11.08141        23.39397        -0.70337
O         19.95123        18.50943         3.12234
H         20.73901        18.03009         3.45191
O          1.48402        19.98737        -0.40172
H          1.57447        20.83771        -0.88209
O         14.23081         7.22480        -4.39604
H         13.43766         6.81305        -4.80292
O          3.44847        37.71506        -2.17549
H          3.92084        37.35441        -1.39415
O         13.47706        25.28847         3.88190
H         12.92588        24.61301         4.34056
O          3.99324        26.43595        -1.61410
H          3.19287        26.60595        -2.17280
O         10.05397        11.00267        -1.29313
H          9.42147        10.68245        -1.97066
O         15.50314         9.37049        -3.57821
H         14.79570         8.88089        -4.06926
O          5.97793        13.04209        -0.16228
H          6.67986        12.70410        -0.75943
O          2.38087        27.48817         1.52407
H          1.59428        27.16755         2.01392
O         14.39245        14.68058        -0.30549
H         15.11011        14.51859        -0.95492
O         10.88376         9.76447         2.02479
H         11.68746         9.85778         2.57716
O          1.13394        23.55251         2.98250
H          1.99128        23.94578         3.25099
O         19.32155        22.84948        -0.69746
H         18.37270        22.56900        -0.72839
O         14.60579        34.75343         1.52595
H         13.72621        35.18865         1.53513
O         16.44208        10.04960         1.11923
H         15.85665        10.44732         1.81178
H          0.87349         3.39107        -2.48850
H         -1.17977         4.29207        -1.39369
H         -1.09588         6.36437        -0.08032
H         -1.05365         8.05629         0.69948
H         -1.05404        10.17684         1.86233
H         -0.84196        12.15094         1.52340
H         -0.82323        14.58036         1.71675
H         -0.96990        16.42652         2.33171
H         -0.92154        18.78491         1.69603
H         -0.92432        20.58318         0.87018
H         -0.98512        22.94964         1.22254
H         -0.93536        24.89160         0.88258
H         -0.95012        26.96750        -0.41082
H         -0.78513        28.56886        -1.75232
H         -0.71404        30.89044        -2.49794
H         -0.45816        32.38285        -3.71911
H         -0.27943        34.57991        -4.80144
H          1.02492        36.56122        -5.40914
H          3.27813         3.54160        -2.92473
H          2.88706        38.11546        -4.96291
H          5.69617         3.62075        -3.28059
H          5.33815        38.05618        -4.53323
H          8.14022         3.64900        -3.55812
H          7.71942        38.11067        -4.17144
H         10.57307         3.64650        -3.82403
H         10.12891        38.27027        -3.71423
H         13.04074         3.49661        -3.91073
H         12.53703        38.41838        -3.30318
H         15.52765         3.44298        -4.07093
H         14.93447        38.65129        -2.77318
H         17.89173         3.86361        -5.07714
H         17.34098        38.88076        -2.24861
H         20.02851         5.08055        -5.03985
H         21.51825         6.53832        -3.44621
H         21.70851         8.60059        -2.12377
H         21.83459        10.29446        -1.05971
H         21.93941        12.51760        -0.07442
H         22.01631        14.38794         0.46447
H         22.08194        16.73911         1.11979
H         22.11227        18.74319         1.08201
H         21.93103        21.09359         0.54064
H         21.88561        23.11471         0.27083
H         22.01747        25.45103         0.90035
H         21.95839        27.31263         1.82474
H         21.88048        29.70460         1.40615
H         21.84964        31.19280         0.29453
H         21.93695        33.59207        -0.21704
H         21.73049        35.52523        -1.30549
H         21.76742        38.02194        -1.21194
H         19.70690        39.25438        -1.25202
