         334
 CSIRO Nanostructure Databank - Neutral Graphene Oxide Data Set
C         30.51208        57.26154        -0.74600
C         30.56235        58.64423        -1.09971
C         29.41605        59.33506        -1.55866
C         30.69167        61.38653        -1.77068
C         29.49028        60.68933        -1.88845
C         32.82345        53.02904         0.24150
C         32.81038        54.42984         0.29743
C         31.49353        55.14182         0.10166
C         32.88679        57.27459        -0.18103
C         31.63234        56.59272        -0.29273
C         32.96414        58.65556        -0.51768
C         31.79836        59.34141        -0.97494
C         33.10008        61.40933        -1.19601
C         31.86185        60.73123        -1.31327
C         35.33210        48.77477        -0.16920
C         35.24865        50.12824         0.13612
C         34.07970        50.91957        -0.02083
C         35.18334        52.94395         0.96726
C         34.00415        52.26224         0.39914
C         35.18950        54.47824         0.97895
C         33.99638        55.17379         0.48612
C         35.33473        57.25544         0.24087
C         34.07954        56.57581         0.20264
C         35.36210        58.68681         0.11189
C         34.19933        59.35764        -0.36161
C         35.49459        61.44185        -0.69202
C         34.25349        60.75399        -0.73307
C         37.76383        44.43023        -0.13640
C         37.74410        45.85296         0.09893
C         36.55007        46.58903        -0.08054
C         37.73342        48.64151         0.45404
C         36.52835        47.98973         0.07918
C         37.73215        50.13730         0.43677
C         36.40571        50.72367         0.90952
C         37.65822        52.91530         1.00160
C         36.48709        52.23942         0.90357
C         37.69253        54.38561         1.36222
C         36.49037        55.15532         0.85596
C         37.86852        56.88812        -0.18160
C         36.55253        56.45051         0.39912
C         37.65830        59.02169         1.08908
C         36.55904        59.47957         0.33635
C         37.90024        61.48460        -0.19824
C         36.64950        60.81544        -0.20922
C         40.14421        40.08957        -0.90838
C         39.82469        41.45669        -0.94807
C         38.80175        42.23724        -0.39879
C         40.21504        44.33453         0.16308
C         38.91968        43.67208        -0.23458
C         40.19119        45.78848         0.63639
C         38.94087        46.53521         0.44994
C         40.19055        48.63285         0.93263
C         38.95239        47.94261         0.60026
C         40.18627        50.01729         1.17081
C         38.88004        50.77191         1.23760
C         40.08290        52.90395         1.71039
C         39.01525        52.25314         0.85282
C         40.18854        54.34780         1.55209
C         39.04566        54.99070         1.08493
C         40.13385        57.20938         1.21184
C         39.19117        56.28445         0.33149
C         40.14148        58.65746         0.74907
C         39.01570        59.46496         0.73726
C         40.31651        61.32165        -0.32198
C         39.08432        60.78979         0.10203
C         42.87886        36.20748        -2.05378
C         42.85238        37.57986        -1.74482
C         41.59084        38.27562        -1.62689
C         42.75804        40.26267        -0.69934
C         41.46651        39.58891        -1.20976
C         42.83314        41.77854        -0.58976
C         41.73952        42.61696        -0.82021
C         42.72905        44.43791         0.40822
C         41.57130        43.82230        -0.13164
C         42.68996        45.82529         0.80553
C         41.46877        46.52745         0.78223
C         42.64100        48.60203         1.41442
C         41.44521        47.92448         1.04956
C         42.60097        49.98817         2.04472
C         41.28467        50.69468         1.72506
C         42.94764        53.04012         2.21102
C         41.04398        52.02393         2.19318
C         42.76535        54.49045         1.95553
C         41.46260        55.11221         1.57735
C         42.70166        57.20186         1.00588
C         41.47376        56.45736         1.22368
C         42.65773        58.58598         0.70617
C         41.39433        59.07154        -0.01181
C         42.53564        61.03496        -1.20791
C         41.46501        60.51316        -0.48363
C         45.35412        33.42326        -2.47883
C         44.14011        34.10923        -2.44613
C         45.32228        36.16799        -1.81455
C         44.10064        35.49196        -2.11600
C         45.30410        37.56053        -1.49821
C         44.07454        38.26352        -1.51164
C         45.26503        40.29045        -0.65474
C         44.04546        39.76362        -1.37780
C         45.18594        41.54983         0.09623
C         43.96077        42.35949         0.01177
C         45.18856        44.42106         0.72479
C         43.96429        43.73319         0.37642
C         45.16178        45.81722         1.02632
C         43.91284        46.51915         1.05966
C         45.12425        48.61443         1.56996
C         43.87759        47.91401         1.35732
C         45.10006        50.07168         1.66153
C         43.90486        50.77414         1.78217
C         45.16056        52.88258         1.10764
C         43.92974        52.23555         1.71286
C         45.21283        54.39079         1.23723
C         44.02756        55.18791         1.55385
C         45.15359        57.22067         0.69753
C         43.95703        56.55672         1.05319
C         45.12384        58.62810         0.54482
C         43.89096        59.30202         0.76480
C         45.00029        60.96987        -1.36782
C         43.77856        60.36075        -1.55932
C         46.55231        34.07082        -2.18042
C         47.76100        36.12429        -1.51131
C         46.56383        35.45137        -1.83645
C         47.75910        37.49474        -1.13697
C         46.52386        38.21956        -1.13861
C         47.70742        40.22901        -0.30870
C         46.49617        39.59254        -0.69616
C         47.73883        41.72919        -0.16427
C         46.46301        42.29038         0.40838
C         47.64865        44.42284         0.91382
C         46.42753        43.74819         0.67021
C         47.63594        45.80851         1.24621
C         46.38285        46.50724         1.30024
C         47.59506        48.62069         2.00796
C         46.33549        47.91392         1.57181
C         47.57720        50.09929         1.69697
C         46.39153        50.76635         1.62641
C         47.65848        52.93995         1.25422
C         46.39838        52.27384         1.75980
C         47.63200        54.30220         0.87018
C         46.38741        55.05140         0.90392
C         47.60629        57.13359         0.36397
C         46.39900        56.47654         0.67313
C         47.61650        58.53552         0.04990
C         46.36769        59.39903         0.15034
C         47.51445        61.02011        -1.34264
C         46.26901        60.17154        -1.22804
C         48.94736        38.14487        -0.73690
C         50.13782        40.15149         0.04687
C         48.94839        39.51261        -0.32906
C         50.21720        41.53756         0.61659
C         48.91981        42.31703         0.56223
C         50.17653        44.31132         1.30995
C         48.88820        43.64268         0.90020
C         50.13495        45.82770         1.24332
C         48.88164        46.53345         1.42229
C         50.09379        48.68323         1.62152
C         48.88286        47.92752         1.62860
C         50.11953        50.08819         1.65653
C         48.85868        50.86548         1.97691
C         50.09418        52.91623         1.12762
C         48.86952        52.25678         1.38948
C         50.08440        54.28525         0.73227
C         48.84847        54.98890         0.61524
C         50.05229        57.03616        -0.02844
C         48.83660        56.38836         0.30819
C         50.03880        58.43962        -0.39394
C         48.77992        59.14273        -0.40346
C         49.96490        61.19998        -1.14789
C         48.73832        60.50654        -0.94499
C         51.26542        42.39303        -0.10994
C         52.51877        44.45220         0.48837
C         51.36646        43.74672         0.54572
C         52.58139        45.83620         0.92812
C         51.33332        46.51053         1.22802
C         52.59911        48.69489         1.22861
C         51.39970        47.93257         1.71818
C         52.56854        50.07131         1.22418
C         51.34194        50.80652         1.46894
C         52.56770        52.95878         1.11881
C         51.34936        52.22293         1.27339
C         52.56938        54.29441         0.70169
C         51.31166        54.97052         0.48217
C         52.52893        56.96337        -0.34508
C         51.26934        56.31063         0.03985
C         52.50276        58.43254        -0.69111
C         51.21595        59.13853        -0.66419
C         52.42999        61.22242        -1.21248
C         51.20709        60.55266        -0.98175
C         53.77306        46.52421         0.88789
C         55.03500        48.61816         0.84326
C         53.83243        47.96265         0.99611
C         55.08916        50.07766         0.75100
C         53.79986        50.83101         0.92634
C         55.10629        52.97586         1.01302
C         53.86187        52.25061         1.45928
C         55.10787        54.47598         1.09894
C         53.80372        55.06730         0.58957
C         54.96044        57.26330         0.40564
C         53.78313        56.35697         0.14094
C         54.96263        58.58918        -0.34212
C         53.75599        59.21427        -0.64661
C         54.90765        61.28982        -1.24010
C         53.69916        60.59472        -1.04864
C         56.36173        50.80662         1.12975
C         57.46141        52.95649         0.39893
C         56.28665        52.28456         0.81437
C         57.53366        54.35851         0.22812
C         56.35770        55.15054         0.54500
C         57.42533        57.34692         0.18006
C         56.27718        56.52637         0.32443
C         57.44455        58.61610        -0.45876
C         56.18187        59.27208        -0.62383
C         57.38208        61.26580        -1.37484
C         56.15127        60.62747        -1.09514
C         58.70035        54.87494        -0.42703
C         59.94683        56.99641        -1.15071
C         59.11317        56.21128        -0.34009
C         59.86443        58.42794        -1.20678
C         58.66265        59.19240        -0.93894
C         59.78695        61.21417        -1.83507
C         58.60948        60.56834        -1.36209
C         60.97504        59.11250        -1.76354
C         60.95446        60.48621        -2.01863
O         37.89821        57.56933        -1.19689
O         45.83579        41.48175         1.43513
O         43.54919        55.19333         2.99185
O         52.57586        57.39119        -1.75905
O         34.96260        53.68762         2.21771
O         54.36821        50.64917        -0.40434
O         58.58713        56.91588         0.78912
O         40.11037        44.67290         1.59386
O         42.00568        52.50547         3.10055
O         40.75040        42.21514        -1.69821
O         45.24385        52.56096        -0.30619
H         44.46664        52.94552        -0.76159
O         30.66075        54.44294        -0.83419
H         31.05966        54.53355        -1.72360
O         44.04948        40.33439        -2.72573
H         44.85479        40.01757        -3.18615
O         36.15025        50.31655         2.28079
H         35.34822        50.79130         2.58487
O         39.94592        55.96200        -0.85368
H         40.19463        56.81554        -1.29171
O         56.52839        50.67445         2.55666
H         55.72740        51.06566         2.98070
O         55.13194        54.81055         2.55529
H         56.01088        54.53304         2.89616
O         50.38612        44.01033         2.72540
H         51.29514        44.29521         2.95762
O         50.68321        41.41425         1.98509
H         49.93221        41.11778         2.53971
O         43.70861        59.09931        -2.07344
H         44.64061        58.78503        -2.23748
O         47.59419        48.56026         3.50055
H         46.67902        48.76359         3.79504
O         42.85161        39.78649         0.67206
H         42.07809        40.12161         1.17158
O         54.80082        57.64098         1.81837
H         54.84880        56.80295         2.34154
O         46.32642        59.13356        -2.26112
H         46.64192        59.55343        -3.08882
O         38.55451        50.79204         2.64676
H         38.26905        49.89332         2.91488
O         47.85179        42.23883        -1.54080
H         48.81520        42.25968        -1.76227
O         42.58879        49.76443         3.49454
H         42.49458        50.65341         3.90902
O         37.40258        58.16123         2.08117
H         38.23103        57.88609         2.56064
O         46.34576        52.54634         3.18302
H         47.17952        52.18118         3.57045
O         46.58320        60.44176         1.15159
H         46.88580        60.00858         1.97747
O         51.62272        47.78277         3.18079
H         50.79929        47.40337         3.55815
O         53.95276        52.13392         2.92014
H         54.02739        53.05271         3.26721
O         50.80557        42.55044        -1.46831
H         51.38114        43.20484        -1.91577
O         43.88160        60.61709         1.09478
H         44.82314        60.92113         1.16686
O         41.31039        58.25671        -1.22702
H         42.13399        58.41682        -1.75414
O         48.84966        51.05604         3.44183
H         48.66636        50.16184         3.82640
O         39.72396        57.19528         2.60633
H         39.69711        56.26014         2.91319
O         37.55528        54.44211         2.82663
H         36.66218        54.06694         3.03380
O         37.83102        50.49498        -0.98149
H         38.38383        49.81936        -1.42749
O         39.46984        52.43172        -0.50604
H         38.79679        52.01258        -1.09573
H         29.56161        56.71627        -0.84178
H         28.46267        58.79545        -1.65121
H         30.74005        62.45318        -2.03285
H         28.59087        61.21200        -2.24382
H         31.89409        52.51938        -0.05462
H         30.94739        55.10227         1.08768
H         33.16322        62.47000        -1.48183
H         34.45865        48.26072        -0.60009
H         33.18971        50.46774        -0.48608
H         35.54713        62.48060        -1.05017
H         36.79897        43.94169        -0.34060
H         35.63139        46.05882        -0.37162
H         37.96735        62.50003        -0.61513
H         39.35878        39.35413        -0.67039
H         37.87308        41.76188        -0.04763
H         40.32094        62.33015        -0.76420
H         41.93395        35.67631        -2.24305
H         40.67896        37.70581        -1.86475
H         42.52025        62.12311        -1.38449
H         45.36596        32.35527        -2.73914
H         43.20193        33.58400        -2.67529
H         45.00052        61.97777        -0.92843
H         47.50115        33.51602        -2.20553
H         48.71147        35.57038        -1.51392
H         47.45905        62.00168        -1.83601
H         49.89538        37.58753        -0.73804
H         51.07080        39.56772         0.04726
H         49.94084        62.24081        -1.50253
H         52.26916        41.88371        -0.11185
H         53.41425        44.01921         0.01314
H         52.40467        62.28403        -1.49942
H         54.70041        45.98415         0.64368
H         55.97361        48.04507         0.80211
H         54.88926        62.34577        -1.54583
H         57.25574        50.34170         0.64500
H         58.35586        52.35661         0.17687
H         57.37454        62.31788        -1.69830
H         59.28450        54.17645        -1.04362
H         60.68142        56.50260        -1.80399
H         59.74269        62.27880        -2.10493
H         61.88658        58.53843        -1.98406
H         61.85491        60.98007        -2.40993
