         424
 CSIRO Nanostructure Databank - Neutral Graphene Oxide Data Set
C          1.19805         3.33672         0.12208
C          0.00356         4.00803         0.29318
C          1.16591         6.15507         0.46402
C         -0.01810         5.40857         0.44042
C          1.13650         7.60928         0.52044
C          0.02715         8.33899         0.13947
C          1.14264        10.51275         0.42899
C          0.03061         9.75742         0.09673
C          1.17078        11.94037         0.30450
C         -0.02987        12.73180         0.18993
C          1.26420        14.76094         0.79371
C         -0.01349        14.07680         0.40036
C          1.25117        16.27315         0.66244
C          0.06930        16.99464         0.94532
C          1.21444        19.11289         0.59085
C          0.03968        18.37739         0.86468
C          1.21431        20.56213         0.51701
C         -0.00116        21.29751         0.44305
C          1.16695        23.43519         0.24327
C         -0.00834        22.68047         0.24113
C          1.16797        24.87018         0.09073
C         -0.03691        25.62492         0.14563
C          1.18317        27.71595        -0.15116
C         -0.02763        26.99870         0.01134
C          1.20507        29.15571        -0.32106
C          0.01955        29.90149        -0.44055
C          1.24573        31.99422        -0.70403
C          0.04177        31.28620        -0.61720
C          1.27498        33.45019        -0.86956
C          0.05690        34.21870        -0.79722
C          1.25903        36.31506        -1.11172
C          0.06436        35.59844        -0.89240
C          1.29982        37.72698        -1.13248
C          3.65334         3.38236        -0.09355
C          2.43291         4.05031         0.12340
C          3.65851         6.17091         0.38245
C          2.42491         5.46984         0.34662
C          3.67059         7.57889         0.86071
C          2.36154         8.32279         0.95654
C          3.65219        10.49812         0.61871
C          2.35058         9.85403         1.08266
C          3.63190        11.94842         0.42315
C          2.42346        12.62378         0.28856
C          3.68224        14.81725         0.18596
C          2.40493        14.10053        -0.04220
C          3.67848        16.28337        -0.12367
C          2.42493        16.98207         0.38465
C          3.67554        19.13072         0.29162
C          2.43529        18.40613         0.40651
C          3.67594        20.55109         0.35247
C          2.44204        21.25308         0.44425
C          3.69229        23.39794         0.11124
C          2.45075        22.74814         0.64325
C          3.63846        24.80041        -0.42143
C          2.38726        25.56985        -0.08726
C          3.66724        27.69125        -0.22129
C          2.40352        26.98084        -0.18091
C          3.68197        29.13052        -0.27316
C          2.45786        29.84659        -0.39213
C          3.71756        31.94269        -0.71592
C          2.47922        31.26693        -0.61046
C          3.77260        33.35067        -1.24393
C          2.47944        34.10280        -1.07141
C          3.77064        36.27258        -1.04726
C          2.51021        35.55602        -1.46126
C          3.75483        37.71167        -1.06822
C          2.50313        38.40731        -1.18651
C          6.09335         3.42172        -0.44161
C          4.86984         4.08972        -0.15827
C          6.10170         6.24711        -0.04277
C          4.86537         5.50865         0.08651
C          6.10758         7.66234         0.14111
C          4.98639         8.35758         0.88300
C          6.04135        10.57045        -0.00916
C          4.82290         9.81624         0.48268
C          6.06443        12.00460         0.46817
C          4.88325        12.67671         0.53515
C          6.14613        14.86698         0.58221
C          4.83491        14.15922         0.87561
C          6.14208        16.29837         0.42512
C          4.93665        17.00824         0.27274
C          6.15573        19.14837         0.32657
C          4.92379        18.42396         0.28070
C          6.15249        20.58253         0.25235
C          4.92006        21.27274         0.28218
C          6.14824        23.41820        -0.07987
C          4.89407        22.71077         0.11736
C          6.12268        24.84105        -0.16390
C          4.91638        25.55587        -0.16604
C          6.11561        27.72184         0.16589
C          4.87535        26.97839        -0.13063
C          6.15115        29.17923         0.00054
C          4.91804        29.85038        -0.23422
C          6.15667        31.99263        -0.30924
C          4.92704        31.26522        -0.44657
C          6.11687        33.44181        -0.36040
C          4.97450        34.11912        -0.72498
C          6.16613        36.30728        -0.53831
C          4.94055        35.57628        -0.75557
C          6.17573        37.73640        -0.69331
C          4.94998        38.41831        -0.91875
C          8.54704         3.45443        -0.81280
C          7.29979         4.13087        -0.55940
C          8.51910         6.30887        -0.75554
C          7.27968         5.55097        -0.39755
C          8.51548         7.70324        -0.22932
C          7.33064         8.38348         0.02577
C          8.51570        10.54891         0.12605
C          7.35286         9.84405         0.18908
C          8.50882        12.04956        -0.04754
C          7.38238        12.67904         0.77594
C          8.59651        14.87124         0.43222
C          7.34301        14.17674         0.55627
C          8.61020        16.29268         0.45369
C          7.38247        17.01362         0.43845
C          8.62614        19.15598         0.38365
C          7.38447        18.43915         0.37627
C          8.63990        20.57917         0.25381
C          7.39858        21.29794         0.14270
C          8.63623        23.44804        -0.08256
C          7.38394        22.71443        -0.03278
C          8.66063        24.82565        -0.14500
C          7.39841        25.58398        -0.44930
C          8.66615        27.74378        -0.03758
C          7.41956        26.97865         0.12216
C          8.64047        29.14419         0.06627
C          7.38028        29.87152         0.04601
C          8.59836        32.05312         0.10503
C          7.36839        31.31170        -0.03466
C          8.61083        33.44511         0.05571
C          7.30270        34.19072         0.19611
C          8.58941        36.32326        -0.19386
C          7.36328        35.63068        -0.23294
C          8.60483        37.75156        -0.37449
C          7.39116        38.43672        -0.58119
C         11.03222         3.42912        -0.91743
C          9.78195         4.11843        -0.79594
C         11.02170         6.20619        -0.46137
C          9.81187         5.54638        -0.57946
C         11.06995         7.62208        -0.04204
C          9.78611         8.38628         0.04902
C         11.04802        10.56857         0.24484
C          9.80545         9.86432        -0.24131
C         11.04993        12.04584         0.17967
C          9.84163        12.73521         0.20417
C         11.07754        14.86090         0.40646
C          9.83508        14.15675         0.34345
C         11.08300        16.29062         0.50213
C          9.85381        17.00470         0.47811
C         11.09038        19.13630         0.54463
C          9.85089        18.43239         0.46533
C         11.09431        20.57573         0.47191
C          9.89140        21.26464         0.25188
C         11.12623        23.49075         0.24028
C          9.93619        22.69408        -0.22785
C         11.13217        24.85890         0.14396
C          9.89172        25.58947        -0.10226
C         11.17914        27.73906        -0.27965
C          9.88068        26.99088        -0.12466
C         11.10143        29.20333         0.11573
C          9.89414        29.86471         0.16106
C         11.11462        32.07607         0.22610
C          9.84692        31.32530         0.54795
C         11.09285        33.48753         0.11569
C          9.83672        34.18857         0.07631
C         11.05871        36.33278        -0.07741
C          9.83250        35.61138        -0.03466
C         11.05237        37.76373        -0.19692
C          9.83840        38.45005        -0.33147
C         13.51575         3.43660        -1.02912
C         12.25103         4.10815        -0.90216
C         13.45951         6.28006        -0.83146
C         12.26961         5.53996        -0.71098
C         13.43992         7.72464        -0.69058
C         12.31709         8.37788        -0.24296
C         13.57068        10.59223        -0.14773
C         12.34478         9.81301         0.11722
C         13.53854        12.02640         0.03003
C         12.31256        12.72926         0.21514
C         13.55606        14.86698         0.37496
C         12.31176        14.15356         0.33008
C         13.56692        16.27732         0.56298
C         12.32124        17.00087         0.60544
C         13.55106        19.15979         0.89374
C         12.29966        18.41614         0.66742
C         13.55891        20.62128         0.67034
C         12.35223        21.28973         0.55642
C         13.61540        23.47707         0.59695
C         12.30732        22.77002         0.83798
C         13.61356        24.88144         0.55510
C         12.35769        25.62042         0.40920
C         13.55293        27.76772         0.61747
C         12.34112        26.99276         0.33685
C         13.54231        29.23360         0.42999
C         12.35549        29.92435         0.29309
C         13.55317        32.12003         0.24979
C         12.34354        31.38618         0.26679
C         13.56133        33.52936         0.12701
C         12.31928        34.21961         0.05127
C         13.53933        36.36612        -0.06535
C         12.31063        35.64612        -0.02491
C         13.50703        37.79305        -0.17243
C         12.30039        38.46090        -0.22716
C         15.97860         3.43992        -1.04363
C         14.70957         4.13309        -1.05917
C         15.91624         6.28540        -1.13670
C         14.71873         5.59509        -1.03914
C         15.95991         7.76010        -1.19293
C         14.64878         8.52003        -0.99298
C         15.97529        10.68233        -0.90157
C         14.68773         9.94431        -0.62139
C         15.98361        12.08555        -0.34102
C         14.77303        12.75224        -0.04825
C         16.02562        14.86250         0.22067
C         14.78477        14.16306         0.20039
C         16.02647        16.26492         0.47902
C         14.82396        16.95152         0.65395
C         16.10605        19.15007         0.66150
C         14.85236        18.40556         0.94147
C         16.05825        20.61791         0.62012
C         14.83034        21.31791         0.64648
C         16.08161        23.45777         0.49002
C         14.83805        22.75518         0.57702
C         16.08395        24.88034         0.43954
C         14.85662        25.56559         0.48240
C         16.07521        27.77021         0.09674
C         14.86877        27.02881         0.61833
C         16.11765        29.20160         0.60755
C         14.80726        29.94473         0.71003
C         16.07711        32.15310         0.25378
C         14.82457        31.44025         0.52623
C         16.06121        33.54259         0.15163
C         14.80322        34.25797         0.12823
C         16.03834        36.38989         0.02919
C         14.79395        35.66520         0.01388
C         16.04457        37.81556        -0.03057
C         14.77999        38.59336        -0.30521
C         18.43913         3.42655        -0.92568
C         17.17501         4.10639        -1.08740
C         18.43017         6.29879        -0.91082
C         17.21111         5.57586        -1.43639
C         18.41249         7.72033        -0.74600
C         17.21549         8.45434        -0.90159
C         18.46198        10.60765        -0.47805
C         17.15536         9.86544        -0.34775
C         18.46385        12.02160        -0.44151
C         17.21968        12.76261        -0.27279
C         18.50274        14.87495        -0.06648
C         17.25252        14.15599         0.00095
C         18.53818        16.27858         0.15169
C         17.33630        16.97285         0.75679
C         18.50376        19.21973         0.04481
C         17.26361        18.45629         0.45701
C         18.55850        20.54550         0.80574
C         17.28699        21.33623         0.59346
C         18.58253        23.46147         0.50149
C         17.31816        22.73629         0.53001
C         18.58420        24.89169         0.42832
C         17.34629        25.61207         0.39709
C         18.59067        27.71916         0.15009
C         17.36813        27.01310         0.28012
C         18.57524        29.17852        -0.12117
C         17.36455        29.95564         0.30309
C         18.59843        32.13912         0.08370
C         17.30660        31.39991        -0.17495
C         18.56219        33.55968         0.18981
C         17.30594        34.26753         0.12625
C         18.51032        36.41794         0.25423
C         17.28126        35.68661         0.13514
C         18.47816        37.84441         0.26630
C         17.23061        38.51569         0.09854
C         19.59785         4.12381        -0.76629
C         20.79798         6.26755        -0.34211
C         19.60958         5.57456        -0.69039
C         20.81500         7.65459        -0.26985
C         19.64603         8.41441        -0.47418
C         20.88712        10.59699        -0.55454
C         19.66775         9.87391        -0.48818
C         20.89765        11.97857        -0.56745
C         19.69677        12.72734        -0.48530
C         20.89451        14.91563        -0.56685
C         19.70268        14.17349        -0.38977
C         20.90986        16.28610        -0.40553
C         19.74218        16.98900        -0.01045
C         20.95755        19.12932         0.33674
C         19.78893        18.43326         0.19141
C         20.98112        20.56687         0.38086
C         19.83371        21.30562         0.51382
C         21.02548        23.49526         0.46227
C         19.81198        22.75901         0.50544
C         21.03326        24.87028         0.39510
C         19.82082        25.61034         0.36175
C         21.04775        27.81659         0.23127
C         19.82184        27.04208         0.22507
C         21.08419        29.17002         0.12002
C         19.86899        29.95867        -0.13880
C         21.01164        32.17434         0.27609
C         19.81919        31.43993         0.09338
C         20.99025        33.55614         0.39541
C         19.78188        34.28318         0.33437
C         20.93071        36.50034         0.54216
C         19.75677        35.73762         0.38526
C         20.88861        37.89840         0.56194
C         19.68134        38.57165         0.42028
O         10.41810         7.89169         1.26873
O         19.16994        29.56241        -1.40255
O         17.03658        29.57310         1.67477
O         14.28303        27.45209         1.87519
O         11.71158        10.07224         1.43062
O         15.17972         8.29134        -2.35976
O         14.19517        18.79564         2.19317
O         14.76729        30.80029         1.88855
O          6.76628        27.19035         1.39874
O          2.96026         7.69691         2.15473
O          5.44955         8.39514         2.26841
H          4.65942         8.23958         2.83707
O         18.36774        19.53918        -1.36924
H         18.43200        18.70394        -1.87744
O          3.60711        16.43128        -1.59140
H          2.84705        15.86759        -1.88117
O          7.41470        25.79477        -1.91124
H          7.30576        24.91715        -2.33630
O         12.07675        22.84226         2.29699
H         12.82241        22.38074         2.73735
O          3.58661        24.64503        -1.90308
H          3.58762        25.54876        -2.28614
O          2.55665        35.55356        -2.96578
H          1.67259        35.25446        -3.27145
O         18.59057        20.20744         2.22322
H         18.65605        21.04172         2.73269
O         14.72145        39.77255         0.51163
H         14.66150        39.49144         1.44748
O          3.98089        33.22241        -2.70127
H          3.71026        34.09101        -3.09516
O          4.60395        14.26757         2.32802
H          3.63406        14.15280         2.47828
O         16.89512         9.69263         1.08568
H         17.69850         9.30375         1.49185
O          8.19329        12.28795        -1.46008
H          8.88289        11.80753        -1.97731
O          8.44376         6.48161        -2.25507
H          8.29926         5.58484        -2.62965
O          2.52385        22.93884         2.12308
H          1.74623        22.47928         2.50710
O          5.90566        10.64342        -1.47659
H          6.60858        11.27545        -1.77685
O          9.87229         9.98447        -1.71163
H          9.19340         9.37996        -2.08717
O         17.34700         5.62933        -2.90707
H         16.51902         5.26900        -3.29034
O         16.13585        10.82274        -2.33644
H         15.88873         9.95133        -2.73776
O          1.99911        14.24661        -1.44494
H          2.55720        13.63968        -1.97644
O          9.76311        31.32474         2.02350
H          9.86615        32.25289         2.32436
O         15.84531        27.88275        -1.34377
H         16.67305        28.19194        -1.77071
O         17.15627        31.29743        -1.63715
H         17.97320        30.84618        -1.97094
O          1.61298        14.43952         2.17127
H          0.85966        14.68648         2.74724
O         17.54280        16.87596         2.20814
H         16.84687        17.41314         2.64446
O          7.08301        34.24434         1.65976
H          6.99599        33.31758         1.97158
O         11.47388        27.74521        -1.72961
H         10.70130        28.14515        -2.18300
O          7.69717        12.43796         2.16953
H          6.97402        12.82111         2.71043
O          2.20925        10.16705         2.49629
H          2.58647         9.40530         2.99369
O         10.12415        22.55992        -1.69593
H         10.19294        23.46794        -2.06277
H          1.21094         2.24729        -0.02479
H         -0.94502         3.45300         0.29556
H         -0.98717         5.91425         0.55124
H         -0.87741         7.81801        -0.20369
H         -0.86540        10.25394        -0.30217
H         -0.98516        12.23421        -0.03273
H         -0.92598        14.66586         0.22654
H         -0.85120        16.45542         1.21116
H         -0.90781        18.89858         1.05625
H         -0.96146        20.76550         0.44063
H         -0.97472        23.16746         0.04785
H         -0.99711        25.11484         0.30073
H         -0.98446        27.53580         0.05510
H         -0.95663        29.40088        -0.39759
H         -0.91965        31.81028        -0.69726
H         -0.89719        33.71111        -0.60753
H         -0.87306        36.15783        -0.75289
H          0.35523        38.28805        -1.06527
H          3.65226         2.29309        -0.24770
H          2.51387        39.50663        -1.20199
H          6.08540         2.33063        -0.58201
H          4.94630        39.51720        -0.97058
H          8.52769         2.36164        -0.94119
H          7.39802        39.53200        -0.68328
H         11.02451         2.33611        -1.04734
H          9.84161        39.54432        -0.44398
H         13.52913         2.33718        -1.07900
H         12.29566        39.55729        -0.31508
H         15.96763         2.34703        -0.90669
H         14.83822        38.96178        -1.36924
H         18.44109         2.32673        -0.88490
H         17.21206        39.61502         0.07057
H         20.54882         3.59049        -0.62074
H         21.71888         5.69663        -0.15613
H         21.76192         8.15925        -0.03345
H         21.84345        10.05890        -0.60251
H         21.86651        12.49399        -0.60813
H         21.82447        14.40734        -0.85392
H         21.84567        16.83540        -0.57609
H         21.92219        18.60348         0.37974
H         21.96140        21.05389         0.27994
H         21.98636        22.96446         0.48157
H         21.99933        25.38958         0.35315
H         21.99740        27.29201         0.40421
H         22.04593        29.68841         0.23978
H         21.97943        31.65600         0.30268
H         21.94606        34.08294         0.51607
H         21.90397        36.00413         0.65351
H         21.82189        38.46534         0.68601
H         19.65136        39.67046         0.42885
