         324
 CSIRO Nanostructure Databank - Neutral Graphene Oxide Data Set
C         30.64427        57.29887        -1.30943
C         30.64309        58.66870        -1.33794
C         29.40641        59.40003        -1.18337
C         30.66223        61.42754        -0.67414
C         29.41748        60.72067        -0.84794
C         33.08258        52.97723        -0.78911
C         32.90018        54.37217        -0.41658
C         31.76738        55.15358        -0.95879
C         33.14634        57.20767        -1.01231
C         31.83781        56.50509        -1.12255
C         33.18488        58.69882        -1.22326
C         31.90666        59.46404        -1.56028
C         33.13572        61.64019        -0.89202
C         31.85792        60.84280        -0.95146
C         35.51447        48.67581        -0.84664
C         35.00339        49.89066        -0.33336
C         34.25862        50.88087        -0.94291
C         35.35720        52.91395         0.18642
C         34.19673        52.24177        -0.42639
C         35.38673        54.32996         0.22601
C         34.13980        55.10899         0.06788
C         35.41764        57.21651        -0.02049
C         34.25815        56.55715        -0.26125
C         35.62671        58.64204        -0.49754
C         34.34255        59.43113        -0.67164
C         35.55267        61.50771        -0.22365
C         34.34780        60.80578        -0.53878
C         38.09828        44.67119        -1.20137
C         37.98460        45.93028        -0.62608
C         36.88304        46.74176        -0.92530
C         37.78672        48.62719         0.40668
C         36.67392        48.02140        -0.36332
C         37.80109        50.05148         0.68265
C         36.62591        50.82308         0.72050
C         37.79938        52.93197         0.73116
C         36.57854        52.22726         0.51695
C         37.78581        54.34740         0.72987
C         36.58985        55.03581         0.48956
C         37.89560        57.21845         0.50733
C         36.55649        56.53529         0.72735
C         37.93769        58.62633         0.40474
C         36.61986        59.36106         0.43374
C         37.96605        61.48175         0.21421
C         36.72885        60.83107         0.10097
C         40.37443        40.20924        -0.79378
C         40.29723        41.65574        -0.43260
C         39.21254        42.47499        -1.06775
C         40.41288        44.51436        -0.33495
C         39.21739        43.83968        -0.88865
C         40.31727        45.72287         0.29252
C         38.94590        46.37408         0.45524
C         40.19388        48.56736         0.98325
C         38.97434        47.89786         0.59935
C         40.18716        49.98687         1.17296
C         39.02102        50.74746         0.96669
C         40.19044        52.91097         1.31441
C         39.00644        52.19854         1.05113
C         40.25345        54.32950         1.25073
C         38.96679        55.11214         1.27890
C         40.33620        57.17921         0.72436
C         39.08278        56.51438         0.73510
C         40.39931        58.59800         0.51225
C         39.16097        59.31019         0.42178
C         40.39421        61.42018         0.56002
C         39.17134        60.75958         0.39224
C         42.69428        35.85316        -0.62958
C         42.66523        37.25844        -0.40569
C         41.47269        37.97217        -0.45442
C         42.72254        40.12978         0.00755
C         41.36550        39.39502         0.00296
C         42.77572        41.52974         0.02857
C         41.69960        42.26275        -0.79212
C         42.85379        44.31363         1.15465
C         41.65402        43.81612        -0.82951
C         42.76764        45.70781         1.00758
C         41.41032        46.35579         1.16711
C         42.67958        48.52786         0.89269
C         41.43818        47.85447         1.00545
C         42.71937        49.95392         1.28496
C         41.42894        50.67283         1.57772
C         42.69206        52.88861         1.55165
C         41.39208        52.18165         1.84656
C         42.72648        54.25658         1.40024
C         41.48427        55.01022         1.24370
C         42.76942        57.08719         0.78833
C         41.53561        56.42687         0.97049
C         42.83432        58.47263         0.47855
C         41.65673        59.29052         0.47151
C         42.74309        61.60288         0.94966
C         41.64473        60.75610         0.60014
C         45.12344        33.01241        -0.66233
C         43.92374        33.70729        -0.73417
C         45.12869        35.80697        -0.29688
C         43.89440        35.11903        -0.55076
C         45.12916        37.22158        -0.11519
C         43.91320        37.95065        -0.12809
C         45.18539        40.04094         0.14040
C         43.92639        39.35953         0.06709
C         45.20777        41.45201         0.36464
C         43.99512        42.18013         0.42830
C         45.20277        44.34416         0.54634
C         44.01489        43.59508         0.75320
C         45.16631        45.73772         0.44983
C         43.92814        46.43786         0.61464
C         45.13432        48.68847         0.23689
C         43.89738        47.87215         0.61789
C         45.21923        50.05341         0.87503
C         43.91486        50.80125         0.89584
C         45.24818        52.82164         1.74775
C         43.93640        52.10302         1.66224
C         45.21364        54.28384         1.56372
C         44.00930        54.93150         1.32886
C         45.34866        57.09178         1.05278
C         44.02707        56.32309         0.86653
C         45.28519        58.55527         0.96333
C         44.14975        59.06113         0.37114
C         45.28633        61.71091         1.27958
C         44.08974        61.27362         0.71854
C         46.33160        33.68183        -0.41997
C         47.58338        35.78535        -0.00255
C         46.35538        35.08009        -0.24371
C         47.61158        37.16079         0.10711
C         46.37814        37.91186         0.02120
C         47.71118        40.03325        -0.11992
C         46.40063        39.31090         0.07173
C         47.68013        41.46064         0.36761
C         46.47738        42.12841         0.48410
C         47.68787        44.26851         0.11995
C         46.50097        43.61080         0.76479
C         47.66263        45.74357        -0.12677
C         46.33776        46.50141        -0.15396
C         47.64524        48.56280         0.50597
C         46.43084        47.92311         0.33494
C         47.68817        49.98927         0.79223
C         46.43186        50.70588         1.01189
C         47.69066        52.82406         1.41284
C         46.49348        52.11491         1.37517
C         47.69384        54.23027         1.69626
C         46.48155        54.98365         1.62022
C         47.67872        57.16732         1.99685
C         46.49508        56.39298         1.61916
C         47.67222        58.66930         1.87339
C         46.41617        59.39972         1.42699
C         47.70919        61.48875         1.44074
C         46.48169        60.89419         1.25128
C         48.84230        37.88942         0.38831
C         50.20788        39.95694         0.66942
C         48.90659        39.24282         0.35779
C         50.18959        41.44998         0.40896
C         48.95007        42.16536         0.40666
C         50.17051        44.29177         0.14494
C         48.97071        43.56679         0.30664
C         50.15259        45.72504         0.09608
C         48.92914        46.47147         0.09024
C         50.15727        48.55335         0.53426
C         48.91435        47.84498         0.36879
C         50.14404        49.94649         0.75626
C         48.90911        50.66091         0.85389
C         50.24566        52.80678         1.22163
C         48.93116        52.17540         0.82889
C         50.27303        54.21181         1.65590
C         48.96328        54.92419         1.95089
C         50.25442        57.16397         1.78943
C         49.00490        56.42436         2.07075
C         50.19480        58.61729         1.80279
C         48.99155        59.34327         1.80801
C         50.12271        61.50554         1.40066
C         48.96170        60.78097         1.59293
C         51.37700        42.14423         0.25310
C         52.60837        44.28597        -0.05083
C         51.40808        43.56833         0.11342
C         52.61280        45.69673        -0.03867
C         51.38526        46.42470         0.12078
C         52.65052        48.50129         0.36124
C         51.40423        47.83555         0.34139
C         52.71666        49.88654         0.85993
C         51.41649        50.65100         1.02533
C         52.68462        52.88095         1.05726
C         51.44217        52.14082         1.07379
C         52.66748        54.28850         1.09506
C         51.47594        55.01859         1.39512
C         52.74066        57.17457         1.39938
C         51.44363        56.44073         1.51878
C         52.75511        58.68158         1.49291
C         51.46612        59.38261         1.81359
C         52.59998        61.53460         0.97301
C         51.43225        60.89689         1.57583
C         53.82290        46.43406        -0.16830
C         55.17481        48.52107        -0.08548
C         53.84390        47.80808         0.00991
C         55.05483        50.02570        -0.14895
C         53.99464        50.65668         0.67846
C         55.02585        52.88841         0.06270
C         53.96660        52.16319         0.79051
C         55.14117        54.32316         0.29136
C         53.92813        55.04390         0.89953
C         54.99263        57.19832         0.28459
C         53.88698        56.50396         0.73681
C         55.05107        58.67608         0.43444
C         53.85271        59.41732         0.84754
C         54.79301        61.51658        -0.09648
C         53.75873        60.82150         0.61967
C         55.97347        50.77840        -0.80481
C         56.96694        52.98540        -1.40145
C         55.97943        52.23075        -0.72647
C         57.01350        54.40416        -1.33384
C         56.08852        55.11640        -0.49138
C         57.02339        57.26129        -1.21738
C         56.07119        56.51875        -0.42604
C         57.00828        58.67443        -1.26499
C         56.11566        59.43552        -0.36820
C         56.77290        61.52472        -1.54332
C         55.88114        60.86541        -0.66993
C         57.95396        55.13696        -2.07961
C         58.86498        57.27257        -2.86388
C         57.96377        56.55127        -2.04915
C         58.82071        58.67619        -2.93678
C         57.86015        59.38547        -2.14062
C         58.67563        61.50037        -3.10631
C         57.78117        60.82289        -2.24480
C         59.70446        59.40990        -3.78071
C         59.62750        60.79521        -3.85189
O         56.30571        59.14872         1.04901
O         33.10820        54.70516         1.01546
O         54.47611        51.30746         1.88956
O         42.41503        44.38391        -1.60813
O         35.42908        50.17509         0.98452
O         42.21981        50.05089         2.65697
O         51.62349        60.30255         2.92341
O         31.89043        59.68369        -3.06743
O         44.24634        60.28708        -0.27162
O         55.04891        54.63654         1.73008
O         33.60100        57.77227        -2.31379
O         52.12215        50.05651         2.17825
O         53.17907        57.83531         2.63265
O         36.33829        56.68064         2.13826
O         48.28782        56.81665         3.28311
O         46.71145        59.17624         2.86597
O         49.74354        54.32207         3.04055
O         47.62936        44.76954        -1.25286
O         44.93984        56.50977        -0.26084
O         44.60786        52.20614         2.94488
O         33.16586        60.23044        -3.45175
H         33.70634        59.41779        -3.62215
O         45.97650        46.61659        -1.57783
H         46.27924        45.77616        -2.00205
O         40.94542        46.12806         2.54439
H         41.11252        45.17890         2.74650
O         33.01811        62.74942         0.00323
H         32.96250        62.40411         0.91769
O         51.29111        39.33329        -0.03106
H         51.07604        39.34540        -0.98644
O         36.10693        59.31648         1.78458
H         36.16046        58.36328         2.11313
O         40.16033        41.82465         1.01544
H         39.24577        42.12455         1.20436
O         47.89684        40.14471        -1.58276
H         47.13135        40.64577        -1.93692
O         46.76609        43.77335         2.20132
H         46.06987        43.28829         2.69239
O         43.65539        51.22870        -0.48240
H         43.98008        50.50373        -1.07750
O         38.39106        45.87191         1.70951
H         39.06795        46.08041         2.40167
O         55.93431        48.00946        -1.18353
H         55.39469        48.08292        -1.99666
O         41.83631        43.66082         1.80193
H         41.97654        42.68803         1.78771
O         44.94405        48.99551        -1.20922
H         45.14861        48.15373        -1.69677
O         48.84491        52.51082        -0.61798
H         48.00729        52.12584        -0.95742
O         40.96179        39.30646         1.40260
H         40.52013        40.16313         1.62377
O         41.99018        41.90572        -2.15638
H         42.50332        42.65689        -2.53883
O         36.23691        58.54735        -1.81788
H         35.55407        58.13791        -2.40192
O         41.25828        52.32592         3.29609
H         41.88802        51.68416         3.70063
O         38.63868        55.30888         2.69515
H         37.76578        55.81274         2.71057
H         29.67988        56.77057        -1.24717
H         28.46020        58.84164        -1.23467
H         30.64264        62.46664        -0.31440
H         28.47520        61.25734        -0.67107
H         32.30786        52.50260        -1.41018
H         30.80191        54.63909        -1.08639
H         33.31350        62.07333        -1.91644
H         34.99666        48.21152        -1.70028
H         33.71501        50.66131        -1.87409
H         35.55128        62.60478        -0.31197
H         37.29944        44.28556        -1.85187
H         36.13104        46.35487        -1.63027
H         38.01659        62.57482         0.08635
H         40.35760        40.00813        -1.87944
H         38.33742        41.97938        -1.51237
H         40.38932        62.51800         0.64076
H         41.75226        35.32889        -0.84931
H         40.52977        37.41574        -0.57423
H         42.50022        62.56211         1.43247
H         45.12975        31.92211        -0.80117
H         42.98373        33.17229        -0.93098
H         45.32668        62.66078         1.83387
H         47.27227        33.11487        -0.37200
H         48.51718        35.20881         0.07745
H         47.76854        62.58715         1.41046
H         49.73955        37.30632         0.64802
H         50.42513        39.81703         1.76721
H         50.06408        62.55353         1.07224
H         52.32585        41.58749         0.24661
H         53.56177        43.74493        -0.14079
H         52.51553        62.58937         0.67351
H         54.76363        45.90254        -0.37191
H         55.76508        48.28384         0.84371
H         54.65193        62.59045        -0.28863
H         56.76566        50.27946        -1.38291
H         57.71565        52.46048        -2.01213
H         56.65965        62.60722        -1.70490
H         58.66835        54.60629        -2.72535
H         59.59295        56.71989        -3.47568
H         58.61593        62.59510        -3.18618
H         60.44936        58.86409        -4.37701
H         60.31570        61.34605        -4.50834
