         349
 CSIRO Nanostructure Databank - Neutral Graphene Oxide Data Set
C          1.23685         1.94436         0.03183
C          1.14024         3.32138        -0.05696
C          2.43126         1.28233         0.37402
C          2.19119         4.18607         0.44931
C          1.55874         6.22711        -0.84936
C          1.67240         7.59208        -1.10848
C          2.33262         5.59844         0.12235
C          2.63439         8.40929        -0.42345
C          1.53055        10.51096        -1.19414
C          1.41249        11.86719        -1.29066
C          2.63182         9.85935        -0.55230
C          2.36597        12.76025        -0.62650
C          1.29477        14.87418        -1.47294
C          1.35324        16.22664        -1.78297
C          2.44360        14.18643        -1.03455
C          2.57215        16.93214        -1.68661
C          2.62229        18.35738        -1.92486
C          3.63386         1.99443         0.57078
C          3.58336         3.45415         0.77245
C          4.87875         1.36677         0.68344
C          4.81536         4.26322         0.63298
C          3.41696         6.36024         0.84717
C          3.53884         7.80596         0.44247
C          4.76244         5.64297         0.66577
C          4.65296         8.57705         1.09787
C          3.71959        10.62335        -0.02926
C          3.59157        12.11185        -0.00240
C          4.80619        10.00246         0.59378
C          4.83906        12.91204         0.03931
C          3.68363        14.85701        -0.97425
C          3.75146        16.23928        -1.31585
C          4.88618        14.15872        -0.53052
C          4.99866        16.97302        -1.20798
C          3.77139        19.06672        -1.75377
C          5.00561        18.41449        -1.38019
C          6.10650         2.09682         0.65921
C          6.08099         3.54876         0.49735
C          7.31896         1.43306         0.82690
C          7.25147         4.26806         0.34737
C          5.97059         6.44496         0.71041
C          5.95767         7.79155         0.96568
C          7.24442         5.73828         0.41125
C          7.18925         8.58147         1.40481
C          5.98045        10.80323         1.12103
C          6.05798        12.22683         0.55801
C          7.21766         9.96985         0.79202
C          7.37101        12.81004         0.18668
C          6.18927        14.79866        -0.96016
C          6.18189        16.30330        -0.92816
C          7.41370        14.19491        -0.35555
C          7.40503        17.01948        -0.70643
C          6.18219        19.12686        -1.23106
C          7.42335        18.47377        -0.90483
C          8.57592         2.08544         0.49935
C          8.54571         3.59271         0.20044
C          9.93089         1.61253         0.97968
C          9.81224         4.31964         0.46444
C          8.55019         6.44434         0.63840
C          8.51594         7.80279         1.26988
C          9.81769         5.66245         0.74506
C          9.81943         8.54007         1.28328
C          8.55384        10.46876         0.25492
C          8.60898        12.00214        -0.12359
C          9.73997        10.06820         1.21787
C          9.82016        12.80317         0.34925
C          8.55765        14.92190        -0.11350
C          8.54982        16.35610        -0.27432
C          9.78697        14.21320         0.27170
C          9.66822        17.21631         0.28323
C          8.61941        19.15436        -0.88218
C          9.90879        18.39120        -0.69018
C         11.03359         2.07763         0.06609
C         11.00044         3.42796         0.73364
C         12.16926         1.41389        -0.26139
C         12.32918         4.13471         0.81466
C         11.05899         6.41332         0.90475
C         11.06096         7.78804         0.95268
C         12.34571         5.66034         0.87638
C         12.32076         8.55474         0.85532
C         11.05006        10.70107         0.76310
C         11.03990        12.13235         0.58743
C         12.24521        10.01976         0.64266
C         12.26160        12.85955         0.62805
C         10.98422        14.95338         0.45958
C         10.95557        16.44276         0.55706
C         12.20691        14.27664         0.58947
C         12.23288        17.21610         0.51629
C         11.10294        19.24199        -0.32985
C         12.25734        18.66058         0.12833
C         13.46145         2.08844        -0.23511
C         13.50550         3.47326         0.21430
C         14.63138         1.40797        -0.47321
C         14.68390         4.21020        -0.00309
C         13.53608         6.35407         0.34189
C         13.55974         7.83511         0.42046
C         14.65926         5.66067        -0.01244
C         14.58655         8.60375        -0.39276
C         13.49579        10.72701         0.43350
C         13.51550        12.14205         0.57183
C         14.69357        10.03938         0.08349
C         14.75338        12.83026         0.44552
C         13.46925        15.03474         0.72015
C         13.52029        16.48143         0.24908
C         14.77089        14.29761         0.63291
C         14.73011        17.23656         0.85126
C         13.52270        19.34424         0.18846
C         14.73939        18.69764         0.42425
C         15.93723         2.03453        -0.05826
C         15.90567         3.52556        -0.28886
C         17.18736         1.34684        -0.53985
C         17.09855         4.23923        -0.48948
C         15.82810         6.36935        -0.66192
C         15.89669         7.85411        -0.41624
C         17.13406         5.65118        -0.46195
C         17.09613         8.52100        -0.46437
C         15.89603        10.73698        -0.10348
C         15.92357        12.13939         0.09893
C         17.06098        10.00751        -0.78612
C         17.09792        12.94338        -0.41897
C         15.97653        15.10322         0.28307
C         15.97105        16.47852         0.41137
C         17.20026        14.36918         0.07876
C         17.17592        17.24820         0.11552
C         15.97676        19.38481         0.41614
C         17.22130        18.69970         0.40873
C         18.35976         2.03181        -0.72951
C         18.33976         3.50973        -0.78381
C         19.64030         1.40169        -0.91644
C         19.64917         4.26968        -0.61993
C         18.34939         6.37327        -0.31031
C         18.32840         7.79252        -0.28767
C         19.60574         5.67203        -0.19495
C         19.52834         8.50136         0.15617
C         18.42011        10.70592        -0.61593
C         18.42804        12.18312        -0.37695
C         19.66991         9.92391        -0.26712
C         19.62459        12.78234         0.30440
C         18.41288        15.01514         0.19316
C         18.49183        16.46637         0.08434
C         19.63863        14.27435         0.52723
C         19.73766        17.15958         0.42698
C         18.47048        19.31307         0.51613
C         19.71614        18.58433         0.54374
C         20.84227         2.08741        -0.74442
C         20.87259         3.49584        -0.41402
C         22.10871         1.41873        -0.89369
C         22.02976         4.14666         0.03098
C         20.80807         6.28908         0.18008
C         20.81686         7.73521         0.48783
C         22.02533         5.55365         0.27314
C         22.10515         8.45018         0.49213
C         20.94743        10.63649         0.03783
C         20.92521        12.10791         0.22143
C         22.06658         9.92933         0.78332
C         22.09358        12.78319         0.51917
C         20.92589        14.97461         0.58619
C         20.93039        16.41366         0.59595
C         22.11860        14.23424         0.65826
C         22.16843        17.09573         0.77592
C         20.94397        19.24624         0.73357
C         22.16793        18.53056         0.81567
C         23.28988         2.03562        -0.54776
C         23.27377         3.34792         0.14644
C         24.55653         1.43056        -0.83138
C         24.59279         4.03804         0.43867
C         23.25733         6.27567         0.65657
C         23.30711         7.75645         0.50206
C         24.60044         5.52291         0.71184
C         24.57574         8.43823         0.52820
C         23.37915        10.63932         0.52843
C         23.35373        12.04507         0.51109
C         24.60449         9.87770         0.50563
C         24.56769        12.79120         0.54456
C         23.37225        14.91416         0.81900
C         23.38850        16.35950         0.89847
C         24.58411        14.17370         0.80303
C         24.60682        17.06340         1.02574
C         23.40528        19.20505         0.90754
C         24.61928        18.49286         0.97804
C         25.75403         2.08143        -0.64686
C         25.83030         3.40616        -0.08183
C         27.01178         1.42982        -1.17951
C         27.03814         4.09817        -0.03571
C         25.83017         6.28307         0.49001
C         25.82781         7.70627         0.50887
C         27.11979         5.48059         0.57542
C         27.06253         8.42792         0.44578
C         25.83289        10.56488         0.41151
C         25.80604        12.03483         0.27531
C         27.09037         9.85923         0.37543
C         27.08468        12.80243         0.18886
C         25.89405        14.81607         1.25568
C         25.87574        16.34979         1.28887
C         27.06758        14.29308         0.42795
C         27.18504        17.12431         1.18425
C         25.85599        19.19557         0.84629
C         27.08787        18.54371         0.75740
C         28.24189         1.92276        -0.41168
C         28.26385         3.43660        -0.37021
C         29.51226         1.31363        -0.93995
C         29.44787         4.15542        -0.52122
C         28.34187         6.25535         0.14868
C         28.37885         7.68334         0.64486
C         29.46636         5.60372        -0.32704
C         29.52937         8.48009         0.04960
C         28.31217        10.59057         0.33859
C         28.33715        12.04684         0.46835
C         29.64659         9.91055         0.54549
C         29.64751        12.80721         0.32355
C         28.35916        15.02805         0.36409
C         28.53463        16.38148         1.06573
C         29.61031        14.26382         0.07630
C         29.64014        17.17950         0.33126
C         28.19478        19.21742         0.20252
C         29.39981        18.56478        -0.12529
C         30.63315         2.03578        -1.12132
C         30.66492         3.47101        -0.89194
C         31.83624         4.18382        -1.06386
C         30.71799         6.30076        -0.58218
C         30.72182         7.78145        -0.52541
C         31.85368         5.59492        -0.91535
C         31.98416         8.54184        -0.57324
C         30.83401        10.65817        -0.04682
C         30.84843        12.04605        -0.08093
C         32.00488         9.88523        -0.39202
C         31.97537        12.81622        -0.54859
C         30.74555        14.92404        -0.31487
C         30.75906        16.41641        -0.36395
C         31.94335        14.17970        -0.62096
C         31.51559        17.10480        -1.41303
C         30.35340        19.19205        -0.93966
C         31.37408        18.45778        -1.59310
O         13.40276         8.23931         1.81859
O         10.46271         2.62855         1.94977
O         17.83264        16.93404        -1.15470
O         29.64442         8.37233        -1.38655
O          7.97125         6.40728        -0.70453
O         18.73261        11.64289        -1.69624
O         30.93919        17.01676         0.98601
O         27.40700        15.07495        -0.75997
O          2.67452         3.84793         1.79116
O         12.59907         4.83671         2.06498
O         23.89888         3.28085         1.47363
O         26.43747        12.42939        -1.04868
O         19.03644         4.04598        -1.95396
O         19.37014        13.32094         1.63866
O         11.61799        16.91622         1.80064
O         14.20419        14.71239         1.94381
O          6.87692        12.98268         1.55601
O         23.85940         5.87203         1.92818
O          8.62915         2.60596        -0.87564
O         19.89479         8.18741         1.54228
O          9.27232         7.92566         2.50689
O          2.48284        12.56355         0.83391
O         20.70887        10.10100        -1.29893
O         26.54905        16.88654         2.47731
O         29.08472        12.49391         1.67415
O         13.66336        16.46104        -1.19168
H         14.58705        16.21605        -1.41768
O          9.18148        17.74145         1.53357
H          9.94163        17.73430         2.16249
O          6.25854        14.44034        -2.40354
H          7.11806        14.77207        -2.74206
O         10.23534        17.76519        -1.97761
H         10.41818        18.48057        -2.62212
O         14.65349        17.28260         2.28582
H         14.52972        16.35734         2.61123
O          3.12780         6.32283         2.27236
H          3.56849         7.10808         2.69007
O         28.58029         7.59126         2.09435
H         28.96370         8.45822         2.39774
O          6.98217         8.73577         2.84240
H          7.74045         9.27137         3.17486
O          4.33592         8.68330         2.52005
H          5.09340         9.17023         2.94259
O         27.14257         1.73174        -2.57744
H         27.25830         2.69966        -2.67345
O         28.06076         1.45070         0.95337
H         28.67450         1.94722         1.53371
O         14.07943         8.67552        -1.75468
H         14.79669         9.07838        -2.29808
O         28.98819        16.11131         2.39955
H         29.96407        16.25943         2.40924
O          8.86723         9.70117        -0.94221
H          8.09370         9.73303        -1.54412
O         15.55736         6.24093        -2.11223
H         16.33073         6.61053        -2.58997
O         21.77440        10.09192         2.20282
H         22.31490         9.44862         2.70736
O         16.75289        13.12014        -1.83408
H         17.52868        13.51343        -2.28913
O         15.99317         1.87366         1.41959
H         15.19378         2.30832         1.78990
O          9.40676        10.58561         2.51688
H         10.08970        10.28693         3.15381
O         27.26934         5.24049         2.01708
H         27.62064         6.07609         2.41634
O          5.80147        10.94868         2.55902
H          6.35580        11.71429         2.83924
O         29.89106         9.88573         1.99920
H         29.74071        10.81659         2.30858
O         26.10345        14.33789         2.60351
H         26.54680        15.07051         3.09804
O         16.72543        10.05320        -2.20490
H         17.01665        10.94244        -2.52430
O          8.67818        12.07262        -1.57466
H          9.43789        11.51795        -1.85872
H          0.37348         1.33484        -0.27163
H          0.26209         3.77648        -0.53588
H          2.46792         0.18485         0.33525
H          0.80081         5.64696        -1.39618
H          1.00953         8.03478        -1.86193
H          0.75630         9.89345        -1.66839
H          0.60373        12.29982        -1.89674
H          0.33167        14.34790        -1.52898
H          0.44062        16.76237        -2.08092
H          1.69276        18.86774        -2.21731
H          4.92298         0.26870         0.73704
H          3.78187        20.15558        -1.90957
H          7.32771         0.38325         1.15606
H          6.18441        20.21582        -1.39029
H          9.95515         0.57758         1.38990
H          8.65198        20.22717        -1.12921
H         12.15066         0.32552        -0.42365
H         11.10527        20.30366        -0.62712
H         14.60348         0.34947        -0.77175
H         13.53700        20.41412        -0.07484
H         17.19860         0.24605        -0.51729
H         15.97675        20.48530         0.37161
H         19.67116         0.31472        -1.08481
H         18.51626        20.40241         0.66667
H         22.12769         0.40988        -1.33203
H         20.96401        20.34377         0.80329
H         24.55735         0.43234        -1.29487
H         23.42595        20.30448         0.89058
H         26.93297         0.31933        -1.08974
H         25.81475        20.27407         0.63086
H         29.51315         0.22802        -1.11794
H         28.05960        20.26038        -0.12169
H         31.56068         1.55362        -1.46591
H         32.75911         3.66112        -1.35173
H         32.80011         6.11961        -1.10186
H         32.92396         8.01730        -0.79190
H         32.96618        10.40805        -0.49750
H         32.90352        12.29624        -0.82066
H         32.84095        14.73034        -0.93380
H         32.19487        16.52379        -2.05207
H         30.20519        20.24847        -1.20595
H         31.99746        18.97441        -2.33669
