         424
 CSIRO Nanostructure Databank - Neutral Graphene Oxide Data Set
C          1.40860         3.38216        -1.36145
C          0.25800         4.08160        -1.64139
C          1.31953         6.25142        -1.17004
C          0.23118         5.50068        -1.62048
C          1.30217         7.66945        -1.07376
C          0.21974         8.44035        -1.54854
C          1.26481        10.55767        -0.86082
C          0.16492         9.81446        -1.39382
C          1.20721        11.99061        -0.75973
C          0.06427        12.73096        -1.08042
C          1.16715        14.87333        -0.58179
C          0.01342        14.11657        -0.90879
C          1.09792        16.29870        -0.45210
C         -0.10641        17.00160        -0.24820
C          1.08691        19.14226         0.00809
C         -0.11455        18.37989        -0.09506
C          1.05946        20.60974         0.08164
C         -0.14785        21.33299         0.01419
C          1.06561        23.42260        -0.26852
C         -0.14322        22.71807        -0.08207
C          1.11614        24.88532        -0.27642
C         -0.04854        25.63892        -0.14904
C          1.18640        27.71349         0.19694
C         -0.01399        27.02612         0.09076
C          1.23404        29.12704         0.55852
C          0.05810        29.80956         0.99395
C          1.28230        31.90497         1.22777
C          0.07800        31.16093         1.26937
C          1.28856        33.32011         1.48911
C          0.14676        34.10440         1.34605
C          1.36105        36.21067         1.65386
C          0.18828        35.51904         1.41547
C          1.41849        37.64287         1.64359
C          3.83643         3.48240        -1.22479
C          2.63019         4.08872        -1.06317
C          3.78387         6.30603        -0.64190
C          2.49903         5.51072        -0.56380
C          3.73244         7.69579        -0.42163
C          2.38931         8.36711        -0.27990
C          3.65905        10.57764        -0.23202
C          2.44107         9.86276        -0.48298
C          3.65599        11.99625        -0.15922
C          2.33478        12.70659        -0.05519
C          3.62157        14.85392        -0.23547
C          2.40696        14.18041        -0.36695
C          3.67169        16.31105        -0.44360
C          2.33480        17.08054        -0.50327
C          3.56721        19.11371         0.45744
C          2.31816        18.49840        -0.13155
C          3.56912        20.69908         0.50869
C          2.28255        21.31838         0.00258
C          3.51823        23.36680        -0.80856
C          2.27634        22.69430        -0.27961
C          3.58825        24.84930        -0.50031
C          2.38992        25.56136        -0.29562
C          3.61271        27.70138        -0.20043
C          2.42376        27.00507        -0.08378
C          3.63137        29.20844        -0.18453
C          2.44266        29.82942         0.50406
C          3.74085        31.88122         0.89974
C          2.50532        31.21134         0.89733
C          3.83609        33.25130         1.42565
C          2.57575        33.97370         1.82410
C          3.87263        36.16399         1.61533
C          2.60728        35.47961         2.09795
C          3.87427        37.58524         1.61141
C          2.61597        38.30092         1.70335
C          6.27795         3.49404        -0.63548
C          5.13086         4.23758        -1.24402
C          6.21419         6.34793        -0.40755
C          5.01965         5.64750        -0.72162
C          6.17400         7.75575        -0.19269
C          4.92723         8.44091        -0.26490
C          6.10967        10.58955         0.09457
C          4.89789         9.87234        -0.11936
C          6.09534        12.01508         0.15002
C          4.85970        12.71783         0.01168
C          6.08129        14.87202         0.11966
C          4.85253        14.15941         0.01595
C          6.09688        16.32036         0.04523
C          4.89763        17.04681        -0.09142
C          6.07953        19.16547         0.07243
C          4.87566        18.46498         0.02872
C          6.09529        20.65786         0.33736
C          4.81460        21.35103        -0.06778
C          6.05817        23.34037        -0.97875
C          4.80437        22.62904        -0.51564
C          6.05393        24.83521        -0.70919
C          4.83674        25.52385        -0.60078
C          6.13716        27.68558        -0.41905
C          4.82689        27.02346        -0.78076
C          6.13754        29.09236        -0.03708
C          4.96555        29.76511         0.23927
C          6.23571        31.91311         0.52864
C          5.02616        31.09737         0.93438
C          6.22592        33.34819         0.73039
C          5.07684        34.02076         1.17422
C          6.27292        36.18644         1.10463
C          5.06237        35.45379         1.31938
C          6.29076        37.61375         1.21161
C          5.07203        38.29453         1.43129
C          8.62851         3.48233         0.07288
C          7.43128         4.17994        -0.24617
C          8.61481         6.32374         0.16210
C          7.43587         5.62858        -0.20949
C          8.59803         7.76084         0.28307
C          7.38090         8.46921         0.11298
C          8.54436        10.61081         0.57100
C          7.34818         9.89084         0.24884
C          8.50640        12.03531         0.66205
C          7.31119        12.73253         0.39265
C          8.53742        14.89786         0.39850
C          7.29820        14.17748         0.34178
C          8.55659        16.31199         0.19921
C          7.32961        17.03108         0.09004
C          8.55850        19.16638        -0.04931
C          7.32458        18.46130         0.01693
C          8.56332        20.60122        -0.18282
C          7.33720        21.32262        -0.19726
C          8.54726        23.39650        -0.63027
C          7.33020        22.67270        -0.52898
C          8.53743        24.82605        -0.77704
C          7.29940        25.53721        -0.72692
C          8.65415        27.64293        -0.30071
C          7.30850        26.97402        -0.51521
C          8.59387        29.15558        -0.40736
C          7.39942        29.81804        -0.04484
C          8.56121        32.03884        -0.38025
C          7.37528        31.24684         0.10726
C          8.64998        33.41947         0.20890
C          7.45064        34.09027         0.54901
C          8.70068        36.21119         0.65056
C          7.47839        35.49420         0.78996
C          8.71733        37.64341         0.80136
C          7.51809        38.31758         1.06157
C         11.06075         3.45708         0.46474
C          9.81885         4.16838         0.38258
C         10.98594         6.32212         0.90018
C          9.79033         5.59514         0.47541
C         11.03521         7.78106         0.76337
C          9.80040         8.48291         0.58738
C         11.00813        10.58242         1.12521
C          9.75885         9.88755         0.75181
C         10.99690        12.07770         1.29213
C          9.66161        12.83028         1.24831
C         10.98553        14.88713         0.58898
C          9.75459        14.21498         0.65778
C         11.00500        16.27310         0.23684
C          9.80359        16.99867         0.12568
C         11.00611        19.14248        -0.13669
C          9.80743        18.44593        -0.04814
C         11.07917        20.59598        -0.48760
C          9.76958        21.31083        -0.36458
C         11.04498        23.43532        -0.45790
C          9.77914        22.70704        -0.49360
C         11.01430        24.87086        -0.69027
C          9.79006        25.51622        -0.86770
C         11.03339        27.70390        -1.26630
C          9.68592        26.97614        -1.24610
C         11.03731        29.18585        -0.99110
C          9.79075        29.87666        -0.61344
C         11.08168        31.94408        -0.31127
C          9.85958        31.27768        -0.38313
C         11.16607        33.33817         0.24762
C          9.86936        34.10056         0.21338
C         11.14336        36.21841         0.20409
C          9.90576        35.50657         0.39544
C         11.14740        37.65733         0.37751
C          9.96367        38.33025         0.67956
C         13.52730         3.45788         0.38358
C         12.28746         4.11156         0.58027
C         13.55158         6.31021         0.73834
C         12.31160         5.54451         0.93960
C         13.52284         7.74832         0.78650
C         12.28178         8.46389         0.83865
C         13.50348        10.61492         0.99271
C         12.29816         9.89191         0.91906
C         13.51875        12.06476         1.07575
C         12.27242        12.81042         1.07758
C         13.47959        14.96276         0.92863
C         12.23312        14.18098         0.84149
C         13.54820        16.32179         0.39075
C         12.28890        16.94499        -0.03232
C         13.53841        19.21310         0.07429
C         12.29450        18.45660        -0.19086
C         13.51826        20.60571         0.12920
C         12.18793        21.32790         0.26696
C         13.46187        23.54830         0.20229
C         12.21880        22.78152        -0.14964
C         13.49120        24.93182        -0.39583
C         12.28156        25.58961        -0.70906
C         13.50927        27.70390        -0.98869
C         12.30221        26.98659        -1.00835
C         13.52144        29.16088        -0.96758
C         12.31980        29.87017        -0.77198
C         13.55428        31.99171        -0.61094
C         12.32415        31.26363        -0.53446
C         13.54681        33.42557        -0.54838
C         12.35627        34.12275        -0.24741
C         13.49056        36.32853        -0.69054
C         12.31141        35.53388        -0.18614
C         13.57178        37.71068        -0.07555
C         12.39673        38.35191         0.30824
C         15.99076         3.48909         0.26367
C         14.74154         4.17101         0.39674
C         15.99655         6.35828         0.22574
C         14.73025         5.60571         0.52129
C         15.99318         7.78133         0.71801
C         14.74844         8.48119         0.78310
C         15.99312        10.59790         0.94086
C         14.74925         9.90087         0.91999
C         16.00414        12.03068         0.93912
C         14.75746        12.73237         1.01016
C         16.03288        14.91259         0.68496
C         14.80369        14.19971         1.06367
C         15.99497        16.27610         0.43352
C         14.75554        16.99910         0.27061
C         15.97844        19.14833         0.03646
C         14.78481        18.46279         0.08242
C         16.02640        20.61714         0.35846
C         14.73156        21.36403         0.13832
C         15.97075        23.47909        -0.11458
C         14.74326        22.75973         0.02263
C         15.97640        24.89409        -0.32319
C         14.73562        25.60662        -0.50015
C         15.98101        27.69890        -0.94946
C         14.75365        27.00220        -0.82626
C         15.97712        29.13007        -1.43420
C         14.74279        29.88001        -1.01121
C         16.00983        32.02063        -1.04114
C         14.76369        31.28261        -0.88050
C         15.98631        33.43069        -0.99852
C         14.78389        34.14886        -0.76489
C         16.01487        36.28913        -0.65710
C         14.79217        35.56590        -0.67143
C         16.02000        37.71014        -0.36104
C         14.81237        38.37390        -0.04752
C         18.46163         3.43687         0.42380
C         17.21619         4.15185         0.38732
C         18.43240         6.24068         0.79982
C         17.24660         5.58367         0.54999
C         18.43898         7.67661         1.26603
C         17.19198         8.45001         0.92356
C         18.47511        10.57101         0.99182
C         17.22025         9.87466         0.98485
C         18.48178        11.99999         0.91311
C         17.24514        12.72884         0.89043
C         18.49448        14.82401         0.54424
C         17.27808        14.16101         0.71481
C         18.49420        16.22627        -0.01856
C         17.29112        17.05303         0.42886
C         18.52679        19.13824        -0.10767
C         17.22831        18.39002        -0.33934
C         18.50898        20.59750        -0.30944
C         17.24541        21.35822        -0.12684
C         18.47821        23.51795        -0.03504
C         17.21894        22.73703        -0.14558
C         18.45852        24.95750        -0.33397
C         17.21089        25.61918        -0.46683
C         18.44747        27.75261        -0.84783
C         17.20169        27.02572        -0.76205
C         18.45454        29.16641        -1.07772
C         17.25909        29.88675        -1.17584
C         18.50471        32.04368        -1.16354
C         17.24375        31.31030        -1.18246
C         18.50925        33.45996        -1.14424
C         17.22104        34.20266        -1.38975
C         18.46487        36.32415        -0.82463
C         17.24373        35.62042        -0.87379
C         18.46114        37.74481        -0.58547
C         17.24547        38.40621        -0.35082
C         19.64750         4.09809         0.60716
C         20.87782         6.23548         0.90066
C         19.67604         5.51811         0.80465
C         20.89531         7.64608         0.92511
C         19.72911         8.40459         0.98676
C         20.92362        10.57726         0.93608
C         19.71405         9.84529         0.97753
C         20.92927        11.95848         0.87219
C         19.72699        12.69763         0.83147
C         20.93023        14.87579         0.53484
C         19.74156        14.13364         0.63646
C         20.93340        16.28273         0.39019
C         19.76792        17.00660         0.20857
C         20.94238        19.21314         0.34626
C         19.72317        18.45837         0.10211
C         20.99867        20.56172         0.24782
C         19.83635        21.33377        -0.20901
C         21.00806        23.59690        -0.32449
C         19.81087        22.81535         0.02661
C         20.93748        24.94265        -0.45445
C         19.68058        25.66411        -0.41805
C         20.87586        27.85456        -0.38607
C         19.66811        27.07653        -0.59471
C         20.91708        29.17837        -0.63733
C         19.77493        29.84898        -1.35348
C         20.93514        32.07039        -1.16290
C         19.73702        31.34754        -1.17621
C         20.93565        33.45923        -1.08972
C         19.72500        34.17842        -1.09639
C         20.89263        36.39182        -1.03423
C         19.71935        35.64520        -1.01089
C         20.87793        37.79462        -0.84570
C         19.69675        38.45912        -0.60505
O          3.59165        21.08761         1.88246
O         12.38340        17.55590        -1.36604
O         11.58552         5.84657         2.16415
O          3.35875        33.27515         2.86393
O         11.00962        11.21626         2.48376
O         14.14426        14.79553         2.22800
O          3.12983        16.77024        -1.71953
O         19.29346        20.98698        -1.51526
O         11.06354        28.63299        -2.39396
O         19.15786        23.22047         1.26849
O         18.38849         7.58029         2.74380
H         19.20509         7.11755         3.03000
O          5.46983         4.37336        -2.69119
H          6.31484         4.86975        -2.74191
O          2.61723        35.63957         3.55276
H          3.12421        34.87096         3.90593
O         16.19969        20.60882         1.84812
H         16.17992        21.54556         2.14552
O         16.02090         6.49307        -1.25204
H         16.01994         5.58366        -1.62113
O          9.26984        13.07023         2.63721
H          9.62388        12.30994         3.15770
O         20.02328        29.64120        -2.79459
H         19.94728        28.67809        -2.96539
O         13.21218        36.56027        -2.12307
H         14.00104        37.00183        -2.50392
O          6.09507        23.22938        -2.44067
H          5.17408        23.39874        -2.75895
O          1.99739         8.17568         1.15563
H          1.08821         8.53351         1.25218
O         17.12881        34.33721        -2.86414
H         17.95366        34.77537        -3.16524
O         18.41273        15.98793        -1.47106
H         19.22504        15.50266        -1.73012
O          3.36036        23.31978        -2.28539
H          2.62269        23.92201        -2.52299
O         13.37171        23.74649         1.68144
H         12.65780        24.40208         1.84062
O         15.89572        29.03109        -2.90587
H         15.86979        29.94601        -3.25971
O         11.48450        20.64168        -1.89124
H         10.87710        20.07141        -2.40751
O          9.13309        27.00556        -2.57587
H          9.58090        27.74157        -3.05787
O          8.28965        32.27173        -1.81508
H          7.41528        32.71155        -1.88096
O          3.40488        18.66035         1.83035
H          3.37977        19.52210         2.36101
O          1.96648        12.63745         1.38751
H          2.07268        11.70226         1.66602
O          5.21056        30.78216         2.37198
H          4.90100        31.56032         2.88721
O          4.68672        27.22228        -2.24159
H          4.51574        28.18870        -2.37051
O         11.42840        33.12987         1.69390
H         11.50927        34.01774         2.10383
O         11.86850        21.31372         1.68343
H         12.45345        21.98276         2.11275
O          3.50138        29.62973        -1.61911
H          2.58353        29.41600        -1.89582
O         17.54575        17.39549         1.81565
H         16.83151        17.99595         2.12123
O          9.10896        27.35460         1.05404
H          8.45333        27.72777         1.68065
O          2.20394         5.39291         0.86422
H          2.13386         6.31616         1.21945
O          6.19644        20.80672         1.78753
H          5.25423        20.93824         2.12100
O         17.08809        18.20768        -1.76932
H         17.71604        17.50029        -2.05423
H          1.44127         2.29002        -1.49034
H         -0.65120         3.54243        -1.94326
H         -0.68798         6.00143        -1.95669
H         -0.61693         7.94200        -2.05788
H         -0.72547        10.34434        -1.75519
H         -0.83273        12.22869        -1.46854
H         -0.92767        14.63730        -1.13318
H         -1.06076        16.45765        -0.22007
H         -1.08439        18.88294         0.01647
H         -1.11346        20.81385         0.08189
H         -1.10309        23.25019        -0.05064
H         -1.03099        25.15049        -0.17987
H         -0.97078        27.54840         0.22306
H         -0.88958        29.26434         1.09117
H         -0.85418        31.65583         1.57477
H         -0.80800        33.62986         1.08006
H         -0.73345        36.08163         1.20438
H          0.47780        38.20823         1.56145
H          3.87082         2.42852        -1.54591
H          2.64429        39.40043         1.70149
H          6.27782         2.39378        -0.65312
H          5.06114        39.39438         1.45159
H          8.63892         2.38395         0.01128
H          7.51996        39.41344         1.15861
H         11.04903         2.37226         0.28094
H          9.98401        39.42170         0.81788
H         13.54008         2.37279         0.20295
H         12.42997        39.41234         0.60272
H         15.98096         2.39413         0.15494
H         14.85214        39.42442         0.27889
H         18.44771         2.34463         0.29556
H         17.24681        39.48905        -0.15660
H         20.59789         3.54441         0.61192
H         21.83270         5.69145         0.86448
H         21.87524         8.13971         0.86049
H         21.88655        10.05012         0.94925
H         21.89646        12.47645         0.83273
H         21.90255        14.37649         0.63726
H         21.90691        16.78927         0.44586
H         21.83288        18.67614         0.69901
H         21.89958        21.10450         0.56916
H         21.95574        23.06833        -0.50175
H         21.85055        25.50013        -0.70543
H         21.74524        27.36213         0.07219
H         21.83263        29.74439        -0.41612
H         21.89825        31.54571        -1.21803
H         21.89788        33.98630        -1.05425
H         21.86295        35.90253        -1.19189
H         21.82762        38.34689        -0.87259
H         19.68863        39.54521        -0.43482
