         429
 CSIRO Nanostructure Databank - Neutral Graphene Oxide Data Set
C          1.60643         1.91073        -0.79446
C          1.40678         2.87026         0.20548
C          2.89688         1.60059        -1.20540
C          2.50432         3.58535         0.70748
C          1.25718         6.51905         1.90481
C          1.29770         7.90375         1.78696
C          2.40919         5.77080         1.63489
C          2.46982         8.54581         1.37244
C          1.17796        10.66900         0.80843
C          1.12002        11.99375         0.52395
C          2.47462        10.05511         1.29859
C          2.32781        12.78515         0.46063
C          1.19368        14.94624         0.88232
C          1.22612        16.31197         0.95648
C          2.37053        14.17402         0.57431
C          2.44036        17.04503         0.73941
C          2.47658        18.46368         0.86436
C          4.01393         2.29626        -0.67744
C          3.80413         3.39867         0.20789
C          5.32100         1.71647        -0.80799
C          4.97146         4.17804         0.70892
C          3.63422         6.38401         1.30137
C          3.65811         7.79947         1.16229
C          4.91013         5.60588         1.21829
C          4.89886         8.49261         0.79346
C          3.64606        10.59726         0.53671
C          3.56896        12.02820         0.03297
C          4.82803         9.90535         0.44760
C          4.84231        12.73599         0.45155
C          3.62428        14.89649         0.36459
C          3.62928        16.34035         0.42370
C          4.81576        14.21198         0.14728
C          4.84676        17.05204         0.24447
C          3.65429        19.15867         0.71107
C          4.87368        18.47665         0.40442
C          6.42352         2.29613        -0.18513
C          6.31634         3.77129         0.11032
C          7.61313         1.58551         0.07272
C          7.44350         4.27656         0.97407
C          6.18753         6.45441         1.38113
C          6.11464         7.83339         0.75880
C          7.48329         5.71687         1.12148
C          7.33836         8.49974         0.34929
C          6.04717        10.59504         0.00336
C          6.03115        11.97339        -0.08921
C          7.28989         9.85418        -0.11938
C          7.15057        12.71771        -0.65846
C          6.03317        14.90541        -0.17981
C          6.04758        16.35842        -0.10870
C          7.17676        14.19033        -0.53693
C          7.23529        17.08045        -0.29886
C          6.09234        19.17063         0.28092
C          7.28741        18.49363        -0.05090
C          8.67716         2.09479         0.86749
C          8.42782         3.42438         1.42651
C          9.87550         1.32691         0.87863
C         10.20204         4.63755         1.70940
C          8.66159         6.45573         0.92968
C          8.58852         7.82560         0.44318
C          9.96550         5.82295         0.99027
C          9.78293         8.46809        -0.02629
C          8.48332        10.51967        -0.51335
C          8.44827        11.95179        -0.93102
C          9.70685         9.81287        -0.50222
C          9.69555        12.77245        -0.97374
C          8.39332        14.88738        -0.96994
C          8.43646        16.41174        -0.81704
C          9.67514        14.14414        -0.99664
C          9.74058        17.09317        -0.68271
C          8.52490        19.18195        -0.16248
C          9.74311        18.51014        -0.41902
C         11.20071         1.67629         1.26948
C         11.38460         3.90862         1.56832
C         12.36997         1.16917         0.71953
C         12.40974         4.31285         0.71231
C         11.11672         6.40570         0.37634
C         11.03490         7.75402        -0.09074
C         12.33651         5.66466         0.25524
C         12.24507         8.41810        -0.45898
C         10.93773        10.46670        -0.96568
C         10.96872        12.04275        -1.12570
C         12.20141         9.77866        -0.76772
C         12.20108        12.75373        -0.85288
C         10.92099        14.94441        -1.17751
C         10.93491        16.39861        -0.87267
C         12.25213        14.19956        -1.05409
C         12.19199        17.08319        -0.76498
C         10.97509        19.20387        -0.45673
C         12.19926        18.52559        -0.62001
C         13.60703         1.95123         0.63856
C         13.51310         3.42120         0.30068
C         14.81303         1.32298         0.50289
C         14.79186         4.16048        -0.11607
C         13.55053         6.32527        -0.14606
C         13.53544         7.73276        -0.39977
C         14.77803         5.63195        -0.13554
C         14.74744         8.40566        -0.62328
C         13.45058        10.53975        -0.62241
C         13.41638        12.03741        -0.50975
C         14.67604         9.82352        -1.14771
C         14.71550        12.79489        -0.45969
C         13.48361        14.95940        -0.72924
C         13.42064        16.37160        -0.68904
C         14.71684        14.26229        -0.61584
C         14.64791        17.12904        -0.37882
C         13.42433        19.24673        -0.64054
C         14.67518        18.59392        -0.58746
C         16.05302         1.96352        -0.08759
C         16.07044         3.46539         0.02789
C         17.34161         1.33521         0.35919
C         17.24674         4.18830         0.11845
C         16.01045         6.32992        -0.21971
C         16.00425         7.74066        -0.49029
C         17.24345         5.63174        -0.05259
C         17.25084         8.42777        -0.58765
C         15.99124        10.60223        -1.05717
C         16.00179        12.04305        -0.64927
C         17.29138         9.87400        -0.89180
C         17.26329        12.79170        -0.82127
C         15.97050        14.91722        -0.64732
C         15.99497        16.37746        -0.42330
C         17.20519        14.20765        -0.76502
C         17.18455        17.15595        -0.72128
C         15.90170        19.26676        -0.61897
C         17.17139        18.58275        -0.70327
C         18.50756         2.05492         0.48517
C         18.50655         3.50232         0.32838
C         19.77332         1.39914         0.74624
C         19.69885         4.22058         0.38234
C         18.46228         6.34751        -0.06839
C         18.46352         7.76408        -0.30634
C         19.70408         5.66000         0.16107
C         19.70371         8.50111        -0.24064
C         18.51783        10.65721        -0.60866
C         18.48093        12.06707        -0.73317
C         19.72203         9.93840        -0.35533
C         19.73170        12.84180        -0.62290
C         18.44806        14.95828        -0.68055
C         18.44401        16.42062        -1.08345
C         19.63039        14.30900        -0.44974
C         19.63537        17.22637        -0.53676
C         18.36871        19.31812        -0.84524
C         19.69062        18.64297        -1.12931
C         20.95617         2.09250         0.73598
C         20.95288         3.52197         0.54097
C         22.27983         1.42406         1.06430
C         22.16489         4.21244         0.40125
C         20.89984         6.37791         0.15953
C         20.91078         7.79618        -0.02074
C         22.18802         5.70591         0.56280
C         22.16730         8.50385         0.02883
C         20.95556        10.63052        -0.16672
C         21.00915        12.10933        -0.32965
C         22.14616         9.92187         0.04335
C         22.10230        12.82969         0.45337
C         20.86211        15.08038        -0.16650
C         20.94659        16.48967        -0.57117
C         22.14116        14.34875         0.19737
C         22.12932        17.17963        -0.41921
C         20.94542        19.34852        -0.65950
C         22.13662        18.64927        -0.48679
C         23.46648         2.08534         0.38290
C         23.37272         3.51182         0.12682
C         24.63448         1.38822         0.19550
C         24.47583         4.22367        -0.41021
C         23.40144         6.38822        -0.01080
C         23.39858         7.78333        -0.07065
C         24.53611         5.65027        -0.43160
C         24.73959         8.47606        -0.09647
C         23.44426        10.63336         0.15359
C         23.46145        12.13831         0.27488
C         24.64412         9.95760        -0.35158
C         24.65372        12.83908        -0.21910
C         23.37724        15.06101        -0.14053
C         23.37586        16.44642        -0.27461
C         24.62567        14.31409        -0.54396
C         24.63666        17.17808        -0.31144
C         23.38920        19.31759        -0.37135
C         24.62642        18.62415        -0.32197
C         25.70963         1.93562        -0.65286
C         25.53862         3.43689        -1.02318
C         27.08311         1.42898        -0.69295
C         26.68435         4.13897        -1.60091
C         25.67022         6.35347        -1.03633
C         25.82830         7.76910        -0.88749
C         26.58091         5.54560        -1.76574
C         27.04058         8.53523        -1.05301
C         25.81582        10.67609        -0.52570
C         25.82282        12.13891        -0.44140
C         27.02245         9.93383        -0.80170
C         27.08753        12.87258        -0.58641
C         25.85812        15.00181         0.03793
C         25.85374        16.49416        -0.21637
C         27.11842        14.31316        -0.43295
C         27.08805        17.19437        -0.17377
C         25.85809        19.31659        -0.23762
C         27.09919        18.63364        -0.16533
C         28.10257         2.09044        -1.39836
C         27.79201         3.36969        -1.98755
C         29.45391         1.55981        -1.43271
C         29.75236         4.49415        -2.14335
C         28.50650         6.67278        -1.94190
C         28.36012         7.91335        -1.30342
C         29.68926         5.89147        -1.85313
C         29.58222         8.54638        -0.90445
C         28.26292        10.67817        -0.50626
C         28.27295        12.15505        -0.63097
C         29.54742         9.92703        -0.37196
C         29.53916        12.85694        -0.86349
C         28.29509        15.04183        -0.41761
C         28.32278        16.47343        -0.17868
C         29.56689        14.38918        -0.74958
C         29.55305        17.15767        -0.07638
C         28.34415        19.30459        -0.06332
C         29.56950        18.59719         0.01907
C         30.68361         2.24058        -1.55309
C         30.79707         3.69352        -1.69011
C         31.90359         1.52726        -1.33383
C         32.02697         4.35373        -1.32611
C         30.86077         6.51155        -1.35124
C         30.81330         7.88923        -1.03830
C         32.07413         5.76740        -1.22837
C         32.10624         8.59694        -0.98244
C         30.84821        10.70082        -0.17245
C         30.83136        12.11901        -0.72205
C         32.10878        10.05155        -0.69316
C         32.11039        12.84237        -0.40737
C         30.80975        15.05863        -0.32335
C         30.79710        16.42007        -0.00178
C         31.97817        14.25260         0.04487
C         32.03083        17.10874         0.30177
C         30.81680        19.25865         0.14986
C         32.03991        18.54743         0.29067
C         33.15552         2.15680        -1.17249
C         33.22073         3.60455        -1.14553
C         34.35019         1.42727        -0.90883
C         34.45451         4.28553        -0.97751
C         33.31408         6.44065        -0.97185
C         33.35939         7.85256        -0.85122
C         34.51078         5.67981        -0.91231
C         34.57050         8.53666        -0.50677
C         33.34718        10.69841        -0.21460
C         33.30226        12.07046         0.03753
C         34.55172         9.93431        -0.12677
C         34.47360        12.77663         0.44915
C         33.21387        14.92824         0.60121
C         33.24620        16.40302         0.53603
C         34.47059        14.14837         0.61538
C         34.47015        17.07611         0.67727
C         33.28513        19.21313         0.38532
C         34.50044        18.50376         0.54512
C         35.60057         2.05604        -0.73005
C         35.74420         3.51574        -1.09465
C         36.73833         1.35847        -0.31302
C         36.91778         4.21816        -0.44408
C         35.83419         6.40340        -0.99248
C         35.78691         7.82044        -0.45495
C         36.96605         5.58849        -0.42206
C         36.97270         8.46424         0.00445
C         35.73721        10.57675         0.29279
C         35.68144        11.97249         0.87294
C         36.94905         9.87071         0.33588
C         36.98138        12.74425         0.75151
C         35.70662        14.84125         1.00022
C         35.71751        16.34785         1.02144
C         36.98606        14.11602         0.85786
C         37.02834        17.04243         0.96995
C         35.75321        19.16339         0.59959
C         36.97823        18.47387         0.79710
C         37.97013         2.01561         0.00381
C         38.05428         3.43607        -0.03271
C         39.10465         1.27697         0.44114
C         39.24281         4.10555         0.42803
C         38.27876         6.30802        -0.26597
C         38.17207         7.73634         0.20444
C         39.31757         5.50132         0.44606
C         39.37611         8.40174         0.55774
C         38.18606        10.57300         0.58505
C         38.21251        11.98377         0.73170
C         39.40778         9.83520         0.59022
C         39.45763        12.69506         0.64167
C         38.26253        14.83182         1.26469
C         38.23352        16.37204         1.22777
C         39.44949        14.12877         0.59630
C         39.40845        17.16392         1.54653
C         38.18507        19.19138         0.82912
C         39.38283        18.57112         1.22950
C         40.27921         1.91617         0.82953
C         40.37495         3.31925         0.84842
C         41.60295         4.00926         1.17229
C         40.41987         6.20152         1.19471
C         40.57428         7.66055         0.79858
C         41.66845         5.36261         1.25702
C         41.78380         8.35461         0.85285
C         40.65898        10.51478         0.58058
C         40.66431        11.96057         0.43020
C         41.83594         9.74450         0.67295
C         41.81813        12.66184         0.01380
C         40.54760        14.73927        -0.03338
C         40.63009        16.69415         2.15909
C         41.73214        14.00751        -0.30259
C         41.75910        17.51783         2.25656
C         40.55081        19.38396         1.34415
C         41.73010        18.85408         1.82404
O         16.78569        10.30243        -2.24249
O         35.59778        15.55959         2.29591
O         13.86191         3.58854        -1.11957
O          9.21750         3.97817         2.46695
O          8.22529        15.77536        -2.12670
O         20.76304        12.55126        -1.68988
O         28.70264         3.92318        -2.88221
O          7.52351        12.24822        -2.01247
O         27.43232         6.15333        -2.68305
O         11.68589        14.60294        -2.37284
O         11.40540         2.68538         2.23404
O         21.33781        14.99476         1.24146
O         23.73451        11.29139         1.44989
O         32.20845        14.35806         1.50818
O         13.37421        11.15262         0.70656
O         29.54524        13.71635        -2.04791
O         32.12655         9.64502        -2.08170
O          4.98010         4.45517         2.13786
O         15.49807        12.32451         0.69893
O         31.75762        12.47685        -1.78193
O         28.72315        10.11734         0.83265
O         15.32105        16.73353         0.84715
O          2.26386         4.39477         1.82288
O         25.12993         2.36377        -1.93561
O         10.90842        11.12726        -2.27533
O          6.25644         6.72108         2.82379
H          6.09551         5.85946         3.27120
O         38.77421         6.45034        -1.66305
H         37.97557         6.66272        -2.21537
O         40.78836        15.46457         2.69652
H         39.92377        14.99723         2.82246
O         19.82608        18.64419        -2.58224
H         19.29075        17.89590        -2.94342
O         22.29859         5.91900         2.02606
H         21.48793         5.54867         2.43629
O         40.48861        16.03300        -0.45206
H         41.34858        16.29721        -0.83385
O         35.50830        11.75477         2.31701
H         35.32626        12.62717         2.72848
O         18.54111        16.34970        -2.55019
H         17.80886        15.78450        -2.87649
O         22.24202         0.02672         0.77815
H         22.17088        -0.08526        -0.19193
O         36.14184         6.50587        -2.44184
H         36.10976         5.57745        -2.78652
O         38.32875        14.49216         2.71034
H         37.50714        14.86567         3.10918
O         24.70224        14.39331        -1.99657
H         24.74437        15.34082        -2.24755
O         19.38109        17.42885         0.88038
H         19.68969        16.63915         1.37554
O         39.92687         6.28251         2.59887
H         39.88652         5.36467         2.94425
O         25.21380         8.41509         1.30774
H         24.65575         9.02796         1.83574
O          6.36724         4.46417        -1.17423
H          7.13578         4.12267        -1.67734
O         21.68549        12.62830         1.81585
H         22.37322        12.99284         2.41093
O         25.78715        14.82317         1.48180
H         26.53772        15.30715         1.88560
O          3.53767        11.98739        -1.41789
H          2.72327        11.51700        -1.69190
O          4.87771        12.62744         1.91643
H          5.66222        13.11588         2.24318
O         15.93347         1.69026        -1.53628
H         15.13506         2.18968        -1.83462
O         36.07064         3.56195        -2.54018
H         35.42307         2.98569        -3.00102
O         31.06930        10.82728         1.25380
H         30.19115        10.72368         1.69620
O         14.36414         9.69956        -2.56472
H         15.21980         9.54791        -3.03143
O          2.66605        10.54284         2.67595
H          3.25623        11.33062         2.63513
H          0.74919         1.35853        -1.20343
H          0.40498         3.05885         0.61202
H          3.06885         0.77533        -1.91041
H          0.34206         6.00489         2.22465
H          0.40191         8.48969         2.03083
H          0.24882        10.08110         0.82412
H          0.14542        12.46945         0.32983
H          0.24638        14.41929         1.06292
H          0.31019        16.87191         1.19598
H          1.54622        18.99900         1.10389
H          5.39501         0.69550        -1.21294
H          3.67197        20.25229         0.82433
H          7.69643         0.55884        -0.31674
H          6.11463        20.25931         0.43747
H          9.82651         0.42472         0.24488
H          8.54304        20.26943         0.00223
H         12.33577         0.23163         0.14245
H         10.98059        20.29408        -0.31095
H         14.84847         0.22884         0.62320
H         13.39150        20.34620        -0.65929
H         17.36931         0.23904         0.45689
H         15.90190        20.36527        -0.68300
H         19.78183         0.31164         0.91374
H         18.31130        20.41723        -0.89129
H         22.42622         1.51566         2.17942
H         20.97527        20.44877        -0.70969
H         24.71348         0.35450         0.56590
H         23.40225        20.41829        -0.37615
H         27.33155         0.54397        -0.08857
H         25.85087        20.41677        -0.21932
H         29.53495         0.49888        -1.14321
H         28.35849        20.40427        -0.03136
H         31.85701         0.43021        -1.25359
H         30.83904        20.35854         0.16137
H         34.28363         0.33661        -0.77305
H         33.31361        20.31141         0.32837
H         36.67009         0.27192        -0.14860
H         35.78292        20.25835         0.49739
H         39.04846         0.17916         0.46313
H         38.18157        20.27045         0.61570
H         41.14902         1.31601         1.13476
H         42.51050         3.40459         1.32281
H         42.62163         5.84334         1.52025
H         42.72482         7.81431         1.02804
H         42.81667        10.24045         0.68342
H         42.76224        12.12649        -0.15542
H         42.59629        14.53493        -0.73148
H         42.66866        17.10213         2.70876
H         40.48371        20.44337         1.06090
H         42.62981        19.47845         1.91249
