         273
 CSIRO Nanostructure Databank - Neutral Graphene Oxide Data Set
C        -10.94859         0.63419         1.42474
C         -9.71857         1.36017         1.22585
C         -8.58902         0.62972         0.73922
C         -7.29230         1.32777         0.57858
C         -6.38515         0.68867        -0.46104
C         -5.09349         1.47438        -0.77717
C         -3.88841         0.77795        -1.37070
C         -2.56150         1.51166        -1.71106
C         -1.28765         0.70424        -1.45699
C         -0.00268         1.43541        -1.80187
C          1.27666         0.68728        -2.08063
C          2.59800         1.47097        -1.98831
C          3.84754         0.73093        -1.57447
C          5.12525         1.49271        -1.12947
C          5.91889         0.79612        -0.00487
C          7.12047         1.54677         0.53042
C          8.32029         0.79491         1.02765
C          9.54446         1.56595         1.42379
C         10.80338         0.78778         1.57267
C         -9.63746         2.74034         1.46449
C         -8.44551         3.49940         1.27319
C         -7.19083         2.76562         0.96397
C         -5.97763         3.54615         0.55212
C         -4.78776         2.73602         0.02728
C         -3.74613         3.58612        -0.71409
C         -2.39129         2.87497        -0.91317
C         -1.29616         3.70881        -1.58690
C          0.00226         2.96560        -1.71823
C          1.31103         3.67798        -1.50120
C          2.56414         3.04029        -2.10184
C          3.84650         3.74922        -1.54292
C          4.82847         2.95910        -0.66561
C          6.23740         3.72502        -0.57913
C          7.22056         3.02116         0.35357
C          8.52638         3.69141         0.59716
C          9.57430         3.02165         1.13569
C         -8.46108         4.88830         1.28950
C         -7.31364         5.70646         0.98666
C         -6.05453         5.03339         0.53470
C         -5.10148         5.89114        -0.28957
C         -3.85806         5.08597        -0.75958
C         -2.56482         5.84683        -0.84106
C         -1.31700         5.23863        -1.49339
C         -0.00721         5.84099        -1.00901
C          1.29144         5.15636        -1.25721
C          2.50645         6.02385        -1.62425
C          3.81048         5.24744        -1.33049
C          4.81666         5.89736        -0.40336
C          6.03217         5.13172        -0.01874
C          7.26831         5.87012         0.38568
C          8.60064         5.15714         0.20391
C         -7.28277         7.05006         1.23732
C         -6.10558         7.94499         0.89908
C         -4.85202         7.12706         0.59248
C         -3.58553         7.42675         0.95825
C         -2.43122         6.92881         0.18056
C         -1.04932         7.23074         0.64167
C          0.00442         7.06318        -0.39930
C          1.13771         7.99891        -0.49502
C          2.45863         7.44300        -0.97021
C          3.66767         8.15703        -0.43494
C          4.99708         7.42127        -0.38494
C          5.83906         7.86171         0.85299
C          7.17661         7.15110         0.79809
C         -5.99042         9.11537         1.86536
C         -4.95258         9.95650         2.04611
C         -3.57654         9.68431         1.60687
C         -2.69277        10.54049         1.03984
C         -1.41900        10.15472         0.35293
C         -0.24096         9.75106         0.93295
C          1.00979         9.35887         0.19051
C          2.29661         9.96871         0.61772
C          3.51156         9.40155         0.38341
C          4.76662        10.06347         0.75367
C          5.91563         9.36954         0.86900
C        -11.01020        -0.71531         1.22752
C         -9.85037        -1.47300         0.82698
C         -8.62540        -0.75602         0.55301
C         -7.44736        -1.49704         0.15475
C         -6.11569        -0.76729        -0.03517
C         -5.14827        -1.47460        -0.98807
C         -3.92590        -0.74232        -1.48060
C         -2.61595        -1.53254        -1.65192
C         -1.29575        -0.79414        -1.44908
C          0.06026        -1.57637        -1.43897
C          1.26639        -0.89713        -2.21503
C          2.58296        -1.57887        -1.77744
C          3.80349        -0.79238        -1.38453
C          4.66612        -1.49018        -0.30847
C          5.86971        -0.68072         0.18197
C          7.20238        -1.38835         0.29839
C          8.45651        -0.62901         0.58483
C          9.72588        -1.41652         0.94112
C         10.83172        -0.55378         1.50835
C         -9.87183        -2.86255         0.77372
C         -8.69098        -3.60326         0.46746
C         -7.49767        -2.87183         0.09833
C         -6.30962        -3.66198        -0.30897
C         -5.11117        -2.97430        -0.84084
C         -3.76255        -3.60202        -0.51500
C         -2.60465        -3.01328        -1.32752
C         -1.32491        -3.75355        -1.21468
C         -0.10469        -3.09171        -1.85821
C          1.22177        -3.80407        -1.51599
C          2.52925        -3.06673        -1.45279
C          3.67712        -3.68840        -0.70998
C          4.99790        -2.94388        -0.69523
C          6.09531        -3.56729         0.14770
C          7.19610        -2.85499         0.51263
C          8.29883        -3.47074         1.28809
C          9.39145        -2.68339         1.69527
C         -8.65847        -4.99878         0.53293
C         -7.45773        -5.76789         0.34557
C         -6.13416        -5.02865         0.33903
C         -5.02047        -5.78721        -0.34167
C         -3.82614        -5.12847        -0.63080
C         -2.58887        -5.80799        -0.63458
C         -1.36820        -5.10668        -0.87588
C         -0.11010        -5.83532        -0.54969
C          1.16502        -5.10944        -0.77836
C          2.45942        -5.82689        -0.60503
C          3.55528        -4.92180        -0.15504
C          4.59657        -5.52709         0.69738
C          5.97022        -4.94392         0.71451
C          7.30716        -5.70321         0.75426
C          8.26623        -4.85213         1.55141
C         -7.53504        -7.11464         0.14321
C         -6.38128        -8.01865        -0.19047
C         -5.10987        -7.23348        -0.55801
C         -3.79828        -7.98645        -0.47642
C         -2.57776        -7.19530        -0.02659
C         -1.29045        -7.97465        -0.21845
C         -0.10950        -7.31594        -0.38122
C          1.18501        -8.11471        -0.58190
C          2.45407        -7.29416        -0.31962
C          3.45010        -7.77844         0.67253
C          4.37402        -6.90949         1.12760
C          6.28851        -7.97150         1.45044
C          7.31645        -7.21670         0.98623
C         -6.04785        -8.94063         0.98845
C         -4.89561        -9.62130         1.03081
C         -3.89333        -9.46780        -0.09663
C         -2.53574       -10.06746         0.16482
C         -1.35664        -9.42358        -0.01402
C         -0.07842       -10.25263        -0.03959
C          1.16170        -9.42057         0.19250
C          2.18917        -9.92161         0.90163
C          3.42056        -9.15673         1.32026
C          4.74294        -9.89151         1.05953
C          5.99532        -9.38121         1.16478
O         -1.36455        -0.00584        -0.19453
O          5.10965        -4.77162         1.87416
O          0.44374         1.15589        -3.16789
O          3.55423         1.00856        -2.97778
O         -0.77884         3.37095        -2.89194
O         -2.69226         7.22900        -1.24629
O         -3.17310         8.36410         1.89685
O          4.90936         5.24574         0.90879
O         -6.76227         1.68957         1.89787
O          5.33815         0.21031         1.21877
O          4.42140         4.65164        -2.51355
O          3.70218        -1.40722        -2.69823
O         -4.18942         4.25415        -1.92147
O          1.51203         4.18785        -0.15285
O          8.57358         1.06213         2.43091
O          2.97911        -6.77036        -1.60619
O          3.20090         8.38063        -1.80218
O         -3.53511        -3.36260         0.84385
O          0.54857        -5.07091         0.55506
O          8.06799        -0.87026        -0.79848
O         -5.03281        -1.09341        -2.37676
O          0.80731         9.22893        -1.25304
O          6.62795         2.47915         1.57347
O          2.14195        -3.85548        -2.64310
O         -0.73890         7.27993         1.82212
O         -5.99173        -3.68524        -1.75079
O         -2.76827        -2.50709        -2.70045
O          5.54805        -2.93252        -2.07534
O          5.25710        -7.30853         2.15057
O         -4.35369        -7.66826        -1.75581
O         -5.43290         4.36191         1.67636
O         -4.89475         1.48097        -2.19970
O          1.17698        -8.49160        -1.98822
H          1.82387        -7.89843        -2.44645
O          3.77360        -1.66011         0.81873
H          3.91459        -0.90749         1.44160
O         -7.18562         0.65690        -1.65206
H         -6.59122         0.38765        -2.39402
O         -4.17910         2.18450         1.22911
H         -4.40179         2.78080         1.98237
O          0.51961        -1.64042        -0.07727
H         -0.06099        -1.06996         0.48222
O          7.76018        -5.57848        -0.63233
H          8.71209        -5.80758        -0.67406
O          5.75277         7.77123        -1.55606
H          5.10408         7.97163        -2.27066
O         -0.35112        -3.25565        -3.25210
H          0.32703        -2.73431        -3.75024
O          1.13611        -1.15405        -3.61510
H          1.97300        -0.86624        -4.04381
O         -6.48441         8.60245        -0.35159
H         -6.50370         7.89556        -1.04431
O          5.14665         7.53314         2.07739
H          5.05923         6.55040         2.12432
O          2.49103         3.32869        -3.50107
H          3.13867         2.74531        -3.95808
O          0.01511       -10.89511        -1.32136
H          0.36184       -10.22385        -1.95521
O          3.28277        -9.01649         2.75503
H          4.02341        -8.44388         3.06407
O          6.81420         3.82160        -1.83808
O          4.18997         2.85536         0.59876
H          4.87547         2.65644         1.29183
O         -1.55361        10.31380        -0.98124
H         -0.73365         9.98284        -1.43155
O          5.38368        -4.26411        -2.61400
H          4.55964        -4.18047        -3.15725
O         -1.38886         5.74759        -2.84688
H         -0.89866         5.11940        -3.42959
O         10.29295        -1.95613        -0.29069
H          9.58046        -1.89429        -0.97675
O         -5.42161        -0.76511         1.22705
H         -5.88294        -0.16493         1.85455
O         -1.79622         2.60756         0.36639
H         -2.45966         2.14337         0.93943
O         -5.81194         6.26201        -1.49277
H         -5.14862         6.48602        -2.18076
O         -6.80366        -8.83284        -1.29275
H         -6.06134        -9.45704        -1.49744
O         -5.67858        -4.82145         1.69725
H         -4.85253        -4.24316         1.63204
O          5.99900         1.45616        -2.25201
H          6.39931         2.36874        -2.40858
O         -2.75101        -7.02871         1.41111
H         -2.12943        -6.33594         1.72272
O         -2.60131         1.74593        -3.11028
H         -3.46861         2.14931        -3.33679
O         -4.42872       -10.19855        -1.23386
H         -3.87769        -9.98307        -2.01665
O          2.41996         6.24051        -3.03782
H          2.87554         5.48463        -3.48189
O          9.64937         5.82095         0.89882
H          9.43815         5.81702         1.85481
H         11.77955        -1.08013         1.69840
H         11.70871         1.33815         1.87287
H         10.52350         3.55725         1.29662
H          8.84954         5.19827        -0.89188
H          8.09075         7.69489         1.08592
H          6.86493         9.87135         1.10732
H          4.74786        11.15522         0.89291
H          2.24875        10.89803         1.20600
H         -0.19553         9.69014         2.02873
H         -3.05751        11.55319         0.80266
H         -5.12899        10.88886         2.60866
H         -6.96344         9.43401         2.27613
H         -8.19492         7.54157         1.61241
H         -9.40221         5.40121         1.54017
H        -10.54859         3.27819         1.76751
H        -11.83811         1.18769         1.75867
H        -11.95077        -1.25720         1.40427
H        -10.79450        -3.40577         1.02682
H         -9.59610        -5.54463         0.72052
H         -8.52668        -7.59353         0.13800
H         -6.80130        -9.07134         1.77944
H         -4.67347       -10.31497         1.85515
H         -2.52316       -11.15525         0.33749
H         -0.15037       -11.06079         0.73291
H          2.06481       -10.91163         1.37130
H          4.65879       -10.95578         0.78427
H          6.84998       -10.03135         0.91654
H          8.12525        -7.73880         0.44996
H          9.07633        -5.31313         2.13738
H         10.19633        -3.16921         2.27020
