         429
 CSIRO Nanostructure Databank - Neutral Graphene Oxide Data Set
C          1.64439         2.48651        -2.50737
C          1.67153         3.89065        -2.46466
C          2.76739         1.74699        -2.18297
C          2.83342         4.58800        -2.09518
C          1.78494         6.81975        -2.46388
C          1.82049         8.21823        -2.43579
C          2.88557         6.04851        -2.06112
C          2.95629         8.90685        -2.01353
C          1.87855        11.23092        -2.52794
C          2.00305        12.55845        -2.72472
C          2.96279        10.39403        -1.94017
C          3.31433        13.26095        -2.67218
C          2.27115        15.55869        -2.57907
C          2.35559        16.93603        -2.45675
C          3.43073        14.74677        -2.54011
C          3.60632        17.56803        -2.27464
C          3.71449        18.99656        -2.17451
C          3.96894         2.40371        -1.79491
C          3.99784         3.83875        -1.75151
C          5.11888         1.65996        -1.45409
C          5.19591         4.50676        -1.35774
C          4.07755         6.71553        -1.63225
C          4.12290         8.16371        -1.62522
C          5.22819         5.94173        -1.27617
C          5.33078         8.83017        -1.28409
C          4.27857        11.06243        -1.68645
C          4.50295        12.45072        -2.19852
C          5.47678        10.24049        -1.38661
C          5.69023        13.15551        -1.74119
C          4.68523        15.35460        -2.32843
C          4.78225        16.76816        -2.19917
C          5.95405        14.51847        -2.32823
C          6.05875        17.41114        -2.01418
C          4.92862        19.60507        -2.01167
C          6.14223        18.83958        -1.92182
C          6.31028         2.30122        -1.05242
C          6.33992         3.73895        -1.00537
C          7.47521         1.56356        -0.71864
C          7.53992         4.38780        -0.59229
C          6.44534         6.57732        -0.88276
C          6.43012         8.06153        -0.60205
C          7.57550         5.82411        -0.57887
C          7.76655         8.74257        -0.69515
C          6.66811        10.90616        -1.06669
C          6.72772        12.38685        -1.07781
C          7.85116        10.14059        -0.72862
C          8.06824        13.07201        -0.88827
C          7.18094        15.22541        -1.78854
C          7.23987        16.63044        -1.88241
C          8.29186        14.47594        -1.32718
C          8.53435        17.31458        -1.80063
C          7.37402        19.48741        -1.69027
C          8.58942        18.77020        -1.58148
C          8.65641         2.20029        -0.28552
C          8.66052         3.62714        -0.18460
C          9.85834         1.44980        -0.04560
C          9.82747         4.29719         0.41125
C          8.89683         6.47149        -0.40823
C          8.99196         7.97189        -0.50848
C          9.99424         5.74542         0.25486
C         10.15610         8.64751         0.06252
C          9.10841        10.77224        -0.49070
C          9.27244        12.20289        -0.80461
C         10.20736        10.02679         0.02468
C         10.58039        12.88162        -0.54745
C          9.54447        15.07127        -1.03731
C          9.76119        16.48243        -1.37410
C         10.64323        14.35627        -0.46966
C         10.89790        17.18524        -0.77677
C          9.82018        19.36494        -1.27723
C         10.96786        18.60256        -0.87969
C         11.07488         2.04636         0.30139
C         11.09086         3.47585         0.67763
C         12.30722         1.35137         0.31939
C         12.36984         4.19851         0.73534
C         11.17498         6.37506         0.60796
C         11.17833         7.87021         0.84848
C         12.38445         5.61492         0.82897
C         12.53834         8.52273         0.82739
C         11.36601        10.74946         0.68070
C         11.70355        12.07093         0.00913
C         12.61196         9.91254         0.83028
C         12.92759        12.78535         0.47236
C         11.81467        14.99929        -0.02072
C         11.90781        16.44728        -0.11585
C         12.94487        14.26325         0.51088
C         13.05277        17.11813         0.37115
C         12.16208        19.23774        -0.44684
C         13.19311        18.50502         0.14609
C         13.53660         2.01047         0.55489
C         13.56925         3.45118         0.71708
C         14.75826         1.29370         0.58477
C         14.81815         4.12126         0.85731
C         13.64308         6.29215         0.95188
C         13.70646         7.72460         0.98968
C         14.85493         5.54389         0.98418
C         14.95333         8.37395         1.20414
C         13.83590        10.58169         1.14929
C         13.93469        12.01421         1.23024
C         14.99090         9.78901         1.36260
C         15.06038        12.65872         1.76902
C         14.04389        14.88498         1.09170
C         14.07077        16.40006         1.22972
C         15.14769        14.13058         1.66490
C         15.45397        16.96745         1.00894
C         14.42301        19.21278         0.66681
C         15.64214        18.32368         0.68065
C         16.00225         1.93773         0.71895
C         16.03674         3.38128         0.83546
C         17.21901         1.19625         0.76523
C         17.27118         4.06385         0.89408
C         16.11593         6.20891         1.12846
C         16.15794         7.61860         1.30675
C         17.33520         5.46703         1.08614
C         17.39692         8.27866         1.58204
C         16.19267        10.42498         1.77961
C         16.16021        11.79572         2.15507
C         17.40156         9.67001         1.88480
C         17.31259        12.22708         2.86429
C         16.34333        14.84603         1.90450
C         16.56467        16.16729         1.32735
C         17.45354        14.34026         2.65786
C         17.87566        16.68060         1.19605
C         16.93422        18.84145         0.55886
C         18.07915        18.03793         0.81455
C         18.47084         1.82569         0.78286
C         18.50515         3.29893         0.67571
C         19.69628         1.12704         0.85882
C         19.82837         4.01485         0.88631
C         18.59693         6.14184         1.30256
C         18.61761         7.54425         1.60374
C         19.81195         5.42455         1.30311
C         19.84900         8.20808         1.90468
C         18.62231        10.30754         2.25977
C         18.56567        11.63826         2.76728
C         19.84674         9.58781         2.24122
C         19.77459        12.35722         3.33126
C         18.77562        14.65608         2.43181
C         19.02727        15.84866         1.58620
C         19.90815        13.85017         2.88547
C         20.34885        16.53701         1.77652
C         19.38770        18.63227         0.87565
C         20.48335        17.97277         1.44330
C         20.94338         1.77621         1.02280
C         21.02084         3.20062         1.15700
C         22.15553         1.01891         1.13528
C         22.22913         3.84764         1.44071
C         21.04457         6.05350         1.63297
C         21.07960         7.45235         1.91698
C         22.26573         5.29795         1.63039
C         22.31932         8.09970         2.15137
C         21.06872        10.29176         2.59817
C         21.06086        11.57708         3.08229
C         22.34865         9.57185         2.32074
C         22.32069        12.25692         3.57445
C         21.12826        14.47199         2.96717
C         21.16944        15.99384         2.92361
C         22.38790        13.71585         3.12292
C         22.52079        16.65068         3.01727
C         21.72375        18.58524         1.73815
C         22.75290        17.91015         2.46029
C         23.37970         1.63891         1.28499
C         23.43682         3.07027         1.41815
C         24.64836         0.81523         1.46781
C         24.67450         3.74207         1.30646
C         23.48016         5.95948         1.85973
C         23.53259         7.36621         2.13653
C         24.74788         5.13464         1.92578
C         24.79102         8.04217         2.45844
C         23.66285        10.22408         2.71130
C         23.62792        11.54878         3.31055
C         24.88862         9.39218         2.78409
C         24.84854        12.20073         3.72842
C         23.64965        14.44874         3.44527
C         23.58996        15.92158         3.71674
C         24.86718        13.69156         3.89262
C         24.86795        16.65548         4.03027
C         23.90927        18.72912         2.95735
C         24.79386        18.16719         4.04007
C         25.90036         1.55557         1.03690
C         25.80550         2.97960         0.89960
C         27.13378         0.94798         0.84300
C         26.92477         3.59128         0.27609
C         25.94498         5.99739         1.63196
C         26.03822         7.25371         2.41031
C         26.95220         5.70654         0.76754
C         27.35933         7.98331         2.37498
C         26.17329        10.07287         2.90213
C         26.22482        11.48628         3.38066
C         27.35283         9.44178         2.54025
C         27.31365        12.35984         2.93017
C         26.16195        14.48380         3.63157
C         26.04988        15.95469         3.45972
C         27.24622        13.76157         2.93062
C         26.81618        16.62134         2.53529
C         25.47139        18.82668         2.89445
C         26.76163        18.13192         2.41883
C         28.33752         1.68072         0.50179
C         28.19793         3.08801         0.22857
C         29.58779         1.07901         0.32348
C         29.31083         3.99011        -0.27823
C         28.32842         6.10620         0.93821
C         28.54758         7.30774         1.74929
C         29.39516         5.39429         0.38924
C         29.77966         8.14067         1.35987
C         28.60019        10.20444         2.28269
C         28.51345        11.71421         2.34281
C         29.65609         9.60056         1.40998
C         29.35784        12.49130         1.43275
C         28.07830        14.51945         2.03960
C         27.83032        15.90215         1.78524
C         29.11003        13.84906         1.27845
C         28.47418        16.55141         0.70233
C         27.38419        18.69798         1.17335
C         28.36606        17.99934         0.51421
C         30.76770         1.85252         0.01959
C         30.65354         3.29284        -0.18910
C         32.02205         1.25200        -0.01681
C         31.77267         4.06024        -0.46831
C         30.62142         6.12748         0.17474
C         30.69123         7.52857         0.39805
C         31.70210         5.48235        -0.48131
C         31.68948         8.34896        -0.20677
C         30.50804        10.36673         0.64791
C         30.15850        11.80399         0.35056
C         31.61850         9.76890        -0.06676
C         31.30705        12.64422        -0.15442
C         29.83544        14.55919         0.24922
C         29.30215        15.79234        -0.17426
C         31.08797        14.01685        -0.24438
C         31.28463        17.08105         0.30405
C         29.39545        18.74303        -0.19510
C         30.72030        18.34511        -0.31097
C         33.27692         2.09029         0.09398
C         33.10050         3.39212        -0.76198
C         34.59215         1.48048        -0.30428
C         34.28342         4.35487        -0.48484
C         32.77346         6.29292        -1.06771
C         32.75049         7.75254        -0.93955
C         34.13364         5.64667        -1.26952
C         33.84360         8.53490        -1.37472
C         32.63044        10.57268        -0.65895
C         32.50062        12.02836        -0.67990
C         33.74325         9.95355        -1.27736
C         33.48726        12.81331        -1.28213
C         32.12990        14.90228        -0.77251
C         32.13810        16.26489        -0.61891
C         33.21381        14.26194        -1.62332
C         32.99097        17.09000        -1.57096
C         31.73300        19.14992        -0.90487
C         32.96689        18.57813        -1.28059
C         35.81499         2.31843        -0.03392
C         35.58166         3.64669        -0.78874
C         37.15442         1.74191        -0.41140
C         36.76778         4.49654        -1.22740
C         35.30894         6.51946        -1.43482
C         35.12722         7.91090        -1.67455
C         36.59339         5.95601        -1.38290
C         36.26597         8.70658        -1.95465
C         34.76849        10.76979        -1.94939
C         34.70295        12.24242        -1.79799
C         36.06702        10.10395        -2.40305
C         35.80430        13.03081        -2.09924
C         34.47966        15.09360        -1.69978
C         34.36626        16.49142        -1.68947
C         35.72647        14.47371        -1.95935
C         35.49113        17.31718        -1.88746
C         34.09313        19.34897        -1.56153
C         35.35930        18.75883        -1.86351
C         38.24735         2.55409        -0.71500
C         38.09934         3.95762        -0.99843
C         39.59161         2.02785        -0.65170
C         39.21397         4.82465        -1.04021
C         37.73643         6.79636        -1.45731
C         37.56799         8.18078        -1.76148
C         39.04910         6.23768        -1.26682
C         38.72646         9.04996        -1.81797
C         37.30263        10.91481        -2.83845
C         37.04534        12.49949        -2.80334
C         38.58863        10.42365        -2.17061
C         38.29017        13.21326        -2.23559
C         36.88268        15.29616        -2.14605
C         36.76373        16.71751        -2.10249
C         38.17566        14.71659        -2.34062
C         37.91412        17.54191        -2.29303
C         36.49111        19.54879        -2.07617
C         37.77129        18.96771        -2.29275
C         40.67567         2.85738        -0.71866
C         40.52322         4.27554        -0.88028
C         41.63487         5.14511        -0.90925
C         40.18200         7.08607        -1.27573
C         40.01170         8.51384        -1.50894
C         41.46605         6.50868        -1.08730
C         41.11945         9.38635        -1.47661
C         39.73873        11.23128        -2.23835
C         39.58696        12.61593        -2.84632
C         40.98231        10.71946        -1.83230
C         40.76722        13.53097        -2.63730
C         39.31459        15.50827        -2.44905
C         39.19952        16.95244        -2.47393
C         40.62157        14.86357        -2.50885
C         40.30870        17.80217        -2.67661
C         38.91315        19.77713        -2.49527
C         40.16055        19.19148        -2.68929
O         29.20779        10.91178         3.41246
O         37.55641        10.57650        -4.19020
O         23.13913        10.25066         1.28571
O         29.71297         7.35513         2.60357
O         12.84055        12.13453        -0.88338
O         17.18025        13.38279         3.65251
O          3.29891        10.94405        -0.59759
O         34.96572        10.28125        -3.32778
O         25.71005        14.10477         4.97295
O          9.34248         7.08040        -1.68794
O          4.22468        12.63965        -3.66366
O         33.20949         5.70787        -2.37561
O         31.22058        16.86601         1.50484
O         19.28641         3.79200        -0.46831
O         10.21139        12.43081        -1.90911
O          7.18267        12.95438         0.25530
O         23.35277        14.04986         2.06078
O          9.51117        16.82485        -2.77087
O         26.88944         7.26742         3.59486
O         24.03264        16.14984         5.11493
O         20.13706        15.67821         0.62888
O         35.93727         3.65622        -2.16303
O         26.69369         4.84695        -0.30326
O         10.16505         3.81335         1.75968
O         25.70159        11.56072         4.73032
O         29.07315         4.23879        -1.69363
H         28.15714         4.59010        -1.76816
O         10.91270        11.09305         2.02465
H         10.69032        10.24399         2.47280
O         33.32135         2.45223         1.50378
H         32.48171         2.90748         1.72890
O         24.82861        18.73695         5.33260
H         24.39106        18.09693         5.93591
O         33.12021         2.99387        -2.13054
H         33.00712         3.80475        -2.68222
O         32.68000        14.22482        -3.00653
H         33.36018        13.78967        -3.56762
O         19.57310        12.44699         4.78229
H         18.71999        12.92604         4.91216
O         29.52983        16.26919        -1.42205
H         30.13810        15.68087        -1.91599
O         24.76375         0.46597         2.86251
H         24.82863         1.29780         3.37652
O         10.72614         8.02455         2.25953
H         11.18347         7.33806         2.79244
O         29.21287        11.69439        -0.79296
H         29.73519        11.42051        -1.57768
O         24.91605         4.78566         3.35577
H         25.28435         5.56725         3.82450
O         20.44984        16.44437         4.12887
H         21.02265        16.26935         4.90612
O         35.92049         2.63423         1.39164
H         35.30794         2.04125         1.88126
O         36.81258        12.91285        -4.15699
H         36.92736        12.07644        -4.69878
O          6.31080        14.28586        -3.73969
H          5.58365        13.73625        -4.12992
O         22.24089        12.32316         5.03686
H         21.28381        12.35987         5.28880
O         39.47902        12.44021        -4.27225
H         38.85925        11.66744        -4.43968
O         38.29563        12.91016        -0.80963
H         39.05230        13.38351        -0.40408
O         32.34436        16.97490        -2.87823
H         32.46157        16.03900        -3.18643
O         14.16834        19.56595         2.05134
H         13.34755        20.10045         2.07873
O          6.09491         8.12916         0.85040
H          5.84343         9.05744         1.05017
O         34.29309         4.78339         0.89271
H         34.76196         4.08464         1.41976
O         13.71877        16.71021         2.62016
H         13.85816        17.68272         2.73075
O         27.70976        18.59401         3.45135
H         27.35864        18.31996         4.32644
H          0.71657         1.97651        -2.80179
H          0.75431         4.43434        -2.72680
H          2.74208         0.64849        -2.21581
H          0.86106         6.33479        -2.80434
H          0.92166         8.77087        -2.74144
H          0.89302        10.76648        -2.68173
H          1.12350        13.12927        -3.05866
H          1.28573        15.09530        -2.72341
H          1.44391        17.54816        -2.50836
H          2.79633        19.59859        -2.23761
H          5.08314         0.56130        -1.49974
H          4.99361        20.70061        -1.93998
H          7.45148         0.46637        -0.79665
H          7.38503        20.58120        -1.56932
H          9.83723         0.36812        -0.24790
H          9.87965        20.46199        -1.21079
H         12.31414         0.27086         0.11123
H         12.26689        20.32745        -0.56373
H         14.73289         0.19865         0.47940
H         14.61396        20.15384         0.07999
H         17.16837         0.09693         0.77623
H         17.07111        19.90947         0.33212
H         19.67752         0.02667         0.84434
H         19.48558        19.69447         0.60380
H         22.10026        -0.07847         1.07381
H         21.88782        19.63109         1.43919
H         24.55889        -0.14896         0.90585
H         23.55794        19.75584         3.16765
H         27.21935        -0.14063         0.98050
H         25.72026        19.88424         3.09733
H         29.69962        -0.00482         0.47303
H         27.34993        19.79453         1.07010
H         32.09709         0.16317         0.12788
H         29.12390        19.74626        -0.56484
H         34.57942         1.00232        -1.29954
H         31.57430        20.23467        -1.02152
H         37.36869         0.72184        -0.05188
H         34.03658        20.44364        -1.45574
H         39.72610         0.94721        -0.49972
H         36.39803        20.64530        -2.06257
H         41.69238         2.44612        -0.63629
H         42.64579         4.73007        -0.78768
H         42.36082         7.14457        -1.09917
H         42.11510         9.01659        -1.19978
H         41.87433        11.36038        -1.83204
H         41.78120        13.11579        -2.73507
H         41.52025        15.49348        -2.44249
H         41.30859        17.37928        -2.84065
H         38.80600        20.87126        -2.50065
H         41.04191        19.82700        -2.85380
