         273
 CSIRO Nanostructure Databank - Neutral Graphene Oxide Data Set
C        -10.95457         0.59067        -1.19709
C         -9.65627         1.32981        -0.99317
C         -8.90224         0.87478         0.24240
C         -7.72417         1.71224         0.67920
C         -6.42926         0.90720         0.92332
C         -5.09507         1.53160         0.57088
C         -3.84540         0.70117         0.40672
C         -2.55798         1.41368         0.14510
C         -1.26485         0.73370         0.44475
C          0.01582         1.44130         0.05612
C          1.18561         0.69954        -0.52549
C          2.46880         1.41839        -0.82045
C          3.77832         0.69894        -0.52536
C          5.00605         1.38988        -1.15739
C          6.29224         0.61174        -1.23295
C          7.55799         1.35157        -0.80989
C          8.90673         0.66284        -0.91217
C         10.07192         1.38865        -0.29001
C         11.03330         0.58660         0.51045
C         -9.72560         2.82314        -1.14054
C         -8.70144         3.65394        -0.73698
C         -7.65492         3.21931         0.29163
C         -6.28910         3.74567        -0.00810
C         -5.01442         2.98073         0.10366
C         -3.78081         3.61936        -0.46743
C         -2.50796         2.88929        -0.20410
C         -1.26545         3.67997         0.08100
C          0.02922         2.92963         0.00026
C          1.29624         3.66236        -0.35990
C          2.55655         2.91068        -0.62435
C          3.74656         3.72896        -1.14696
C          5.06531         2.92602        -1.11980
C          6.34263         3.65805        -0.82502
C          7.54589         2.82753        -0.45543
C          8.83429         3.55554        -0.24332
C          9.96371         2.84949        -0.01584
C         -8.71425         5.03612        -1.11412
C         -7.62079         5.88807        -0.82362
C         -6.45675         5.24115        -0.12162
C         -5.15319         5.90090        -0.55775
C         -3.77499         5.15341        -0.72849
C         -2.60907         5.89884        -0.08344
C         -1.28693         5.17213         0.02587
C         -0.11109         5.88100        -0.63438
C          1.24338         5.15183        -0.55928
C          2.52683         5.80893        -0.15947
C          3.78005         4.95043        -0.16266
C          5.04970         5.57897         0.28311
C          6.29454         5.19619        -0.54594
C          7.55537         5.76741         0.08273
C          8.86548         5.08121        -0.27620
C         -7.66226         7.28175        -0.78073
C         -6.44809         8.18841        -0.58422
C         -5.15034         7.38525        -0.71598
C         -3.85388         8.13397        -0.55276
C         -2.58350         7.37647        -0.25793
C         -1.30391         8.21095        -0.44070
C          0.02191         7.38719        -0.32343
C          1.26876         7.95895         0.28139
C          2.35153         6.99890         0.79205
C          3.68462         7.64850         1.19535
C          4.99129         6.92538         0.97779
C          6.27520         7.77241         1.03420
C          7.52217         6.99742         0.63424
C         -6.35771         9.12048         0.60558
C         -5.19094         9.72214         0.92147
C         -3.88500         9.40318         0.28137
C         -2.59329         9.86987         0.88722
C         -1.36703         9.38463         0.55838
C         -0.06703        10.13412         0.86698
C          1.23582         9.32323         0.87603
C          2.39975         9.87994         1.27316
C          3.74951         9.18665         1.38923
C          4.82067         9.70191         0.42125
C          5.99251         9.06039         0.26928
C        -11.15365        -0.65839        -0.75665
C        -10.24635        -1.39798         0.20171
C         -8.95617        -0.63011         0.51727
C         -7.70251        -1.40022         0.78912
C         -6.42358        -0.61543         0.63724
C         -5.12307        -1.36655         0.56130
C         -3.87814        -0.65831         1.11015
C         -2.55941        -1.45639         0.98885
C         -1.26808        -0.72834         0.69365
C         -0.11103        -1.48887         0.09778
C          1.11755        -0.80619        -0.43661
C          2.41272        -1.57245        -0.62215
C          3.71667        -0.81750        -0.74494
C          5.01784        -1.53426        -0.45335
C          6.25992        -0.96168        -1.15549
C          7.63481        -1.58954        -0.73698
C          8.93677        -0.84453        -0.85509
C         10.29127        -1.53247        -0.52681
C         11.06788        -0.75776         0.50939
C         -9.99420        -2.84955        -0.21228
C         -8.91228        -3.57866         0.13652
C         -7.69785        -2.94747         0.80420
C         -6.41739        -3.59212         0.26142
C         -5.09919        -2.86800         0.41920
C         -3.84644        -3.64898         0.66559
C         -2.56265        -2.94286         0.97172
C         -1.33002        -3.71081         0.60467
C         -0.07603        -2.97998         0.29121
C          1.26629        -3.54713         0.70748
C          2.39499        -3.04469        -0.22001
C          3.68597        -3.78333        -0.13494
C          4.97240        -3.01348        -0.27217
C          6.10208        -3.93862        -0.67685
C          7.86256        -2.75800         0.22152
C          8.96756        -3.71081        -0.17983
C         10.16956        -3.04082        -0.33263
C         -8.91692        -5.08391         0.05561
C         -7.65491        -5.89235         0.20269
C         -6.38299        -5.08883         0.19829
C         -5.19588        -5.87393         0.73801
C         -3.88183        -5.12415         0.96651
C         -2.57456        -5.86758         1.06939
C         -1.22654        -5.12827         1.17914
C         -0.07084        -5.78189         0.42807
C          1.22140        -5.08178         0.75450
C          2.49762        -5.84298         0.71968
C          3.77841        -4.98842         0.81166
C          5.09661        -5.80067         0.69160
C          6.36320        -5.12621         0.20717
C          7.62645        -5.88664        -0.03223
C          8.82998        -5.13762        -0.21704
C         -7.46733        -7.29588        -0.27686
C         -6.25063        -7.89557        -0.42443
C         -4.91045        -7.17413        -0.25318
C         -3.83566        -8.03996         0.47351
C         -2.53228        -7.36130         0.83106
C         -1.24083        -8.05060         0.48149
C         -0.05435        -7.22593         0.06296
C          1.24519        -7.94126        -0.39089
C          2.54171        -7.14929        -0.01649
C          3.83903        -7.89216        -0.05767
C          5.06281        -7.30907         0.61439
C          6.36258        -8.03797         0.36541
C          7.59608        -7.27363         0.09724
C         -6.10009        -9.28222        -0.86663
C         -4.95533        -9.98933        -0.70586
C         -3.81013        -9.49060         0.10162
C         -2.50410       -10.30887         0.14079
C         -1.20652        -9.50043         0.14677
C          0.01210       -10.11400         0.10921
C          1.29719        -9.40569         0.06945
C          2.50794       -10.03674         0.09427
C          3.76000        -9.37093        -0.48551
C          5.07639       -10.08522        -0.26782
C          6.24994        -9.46573        -0.05029
O          6.03305        -5.19217         1.61811
O         -1.70845        -7.95231         1.88269
O          1.58866         1.05507        -1.90081
O          0.03891        -1.22647        -1.33268
O         -8.91837         1.56634         1.50992
O         -6.39639        -4.29433        -1.01812
O          3.45255        -6.99976        -1.14613
O         -8.51028        -0.88795         1.87978
O          5.93808         3.39138        -2.19297
O          6.14583         5.87787        -1.75345
O          8.42104        -1.62295        -1.97588
O          3.03314        -1.30225        -1.91323
O         -1.33599         8.85190        -1.65522
O          5.71452        -7.93169         1.73087
O         -3.27511         0.65797        -0.90873
O          9.96125         1.18159        -1.75869
O         -4.28611        -9.01236         1.43098
O          4.42921         4.54920         1.08944
O          1.05578         7.98306        -1.15531
O          7.33267         1.81689         0.58169
O         -5.35345         6.53728        -1.88324
O          1.75515        -5.74224         1.95854
O          2.08610         5.82186        -1.54429
O          1.20959        -8.12418        -1.77391
O         -1.04796         0.19893         1.79743
O         -7.02964         5.39164         1.29546
O          7.47502        -2.73076         1.37415
O         -5.73936        -0.81085        -0.64168
O         -2.41227        -2.26037         2.23236
O         -3.06559         2.99592        -1.55819
O         -1.21443         4.50545         1.30270
O         -4.41089        -6.68234        -1.39263
O          0.31028         2.22325         1.25184
O         -2.81175         6.74698         1.07032
O         -4.22102        -3.27917        -0.68377
O          5.55342         0.97079        -2.43090
O          4.31787         6.88158         2.27267
O          2.26577         3.32579         0.72539
O         -3.35588        -5.49897         2.27098
O         -0.84335        -3.63323        -0.75674
O          2.82444        -3.95269        -1.27591
O         -0.40198        -6.18089        -0.90971
O          5.17011        -2.10234         0.86022
O         -7.93999         4.16401         1.45160
O         -3.81789         9.41112        -1.19395
O         -5.57791         1.41971         1.95162
O         -5.43181         3.73903         1.24010
O         -7.71703        -3.30274         2.20594
O          1.50120        -2.98782         2.00480
H          2.24541        -3.49421         2.42236
O          3.96257         0.84012         0.90674
H          3.67417         1.73232         1.20505
O          6.57746        -3.94317        -1.80326
O          4.18126         9.49313         2.72459
H          5.10267         9.14009         2.82626
O          9.93194         5.57254         0.52780
H          9.74998         5.34831         1.46306
O         -5.65067        -6.40490         1.95094
H         -4.87331        -6.56896         2.53954
O         -8.76094         0.89104        -2.08118
H         -9.23940         0.98400        -2.93242
O          6.01773        -1.41196        -2.49021
H          6.81113        -1.23496        -3.04096
O         11.06416        -1.42642        -1.74991
H         10.45352        -1.61010        -2.49794
O         -0.49045         5.81691        -2.02426
H          0.17613         6.33353        -2.53239
O         -2.47895       -11.22004        -0.96103
H         -2.21486       -10.73510        -1.77000
O        -11.00637        -1.50258         1.42923
H        -10.34967        -1.53314         2.16488
O          3.50880         4.09055        -2.49405
H          4.37792         4.34260        -2.88823
O          3.79767        -4.38943         2.12092
H          4.08888        -5.05349         2.78045
O          3.56581        -9.42671        -1.91267
H          2.74777        -8.88052        -2.11607
O         -0.85111        -5.05901         2.55295
H         -1.65998        -4.91038         3.09106
O          1.77767         6.43818         1.99247
H          2.51761         6.05658         2.52103
O         -0.20142        10.84778         2.09319
H         -0.04864        10.23115         2.83827
O         -8.56789        -5.71390         1.33468
H         -8.04820        -4.23478         2.27686
O         -3.39529         5.29541        -2.10568
H         -3.98075         4.75957        -2.67885
O          6.51237         8.14857         2.42073
H          6.23000         7.39293         2.98229
O         -6.50574         9.03364        -1.76369
H         -6.11708         8.52865        -2.51125
O         -4.12030        -0.48925         2.50992
H         -3.26967        -0.32477         2.97032
H         11.75814        -1.29678         1.17419
H         11.65690         1.14430         1.22617
H         10.89653         3.38815         0.21637
H          9.09769         5.37334        -1.33777
H          8.47245         7.44863         0.96474
H          6.76819         9.46566        -0.39738
H          4.64143        10.64783        -0.11253
H          2.38141        10.90645         1.67326
H          0.03099        10.90537         0.05355
H         -2.65182        10.71332         1.59544
H         -5.16667        10.42614         1.76822
H         -7.27391         9.37824         1.15638
H         -8.58192         7.78769        -1.11683
H         -9.59010         5.43058        -1.65212
H        -10.51782         3.23935        -1.78481
H        -11.71155         1.07060        -1.83833
H        -12.10263        -1.16463        -0.99277
H        -10.86829        -3.37573        -0.63183
H         -9.80337        -5.54204        -0.43184
H         -8.37995        -7.89021        -0.44529
H         -6.95972        -9.75421        -1.36805
H         -4.88059       -11.01405        -1.09885
H         -2.53014       -10.93476         1.07199
H          0.04865       -11.21147         0.01502
H          2.54976       -11.11655         0.31237
H          5.08374       -11.15961        -0.50809
H          7.18226       -10.05278        -0.05132
H          8.51848        -7.84826        -0.08713
H          9.75561        -5.71486        -0.38517
H         11.09139        -3.61603        -0.52475
