         210
 CSIRO Nanostructure Databank - Neutral Graphene Oxide Data Set
C         30.34511        31.86128        -0.08501
C         30.45697        33.03831         0.31854
C         30.51727        36.16082         0.33208
C         30.41160        37.39410         0.29590
C         30.58352        40.45498         0.68214
C         30.54012        41.66727         1.02677
C         32.78305        29.09411        -0.70771
C         31.68838        29.69566        -0.66627
C         32.72766        31.63020         0.25745
C         31.53068        31.03661        -0.17766
C         32.77035        33.01159         0.93038
C         31.54992        33.88834         0.60453
C         32.86479        36.00223         0.52286
C         31.60553        35.25106         0.52302
C         32.87074        37.39318         0.33792
C         31.63687        38.20738        -0.09160
C         32.90098        40.30644         0.58246
C         31.67310        39.60699         0.44969
C         32.94504        41.71039         0.90659
C         31.71053        42.44786         1.16883
C         33.07672        44.30567         1.59890
C         31.92409        43.80210         1.51624
C         35.48070        27.54692        -0.98307
C         35.29470        28.86869        -0.48138
C         34.07656        29.50074        -0.30082
C         35.32315        31.56937         0.55679
C         33.99030        30.84892         0.33077
C         35.26294        33.05961         0.61992
C         34.08583        33.76313         0.70645
C         35.29616        35.93118         0.77520
C         34.10075        35.24005         0.70821
C         35.34056        37.35373         0.36900
C         34.09089        38.13958         0.37783
C         35.39480        40.26190         0.41765
C         34.13477        39.54315         0.43563
C         35.43558        41.65652         0.61964
C         34.22130        42.38024         0.96194
C         35.67998        44.37760         1.54287
C         34.33356        43.74745         1.33013
C         35.73483        45.88564         1.33817
C         37.86316        27.48242        -0.97571
C         36.55514        26.95198        -1.17584
C         37.82171        28.85109        -0.52090
C         36.57997        29.53286        -0.25547
C         37.84023        31.56404         0.28778
C         36.59566        30.88859         0.17476
C         37.85493        32.95339         0.82842
C         36.56331        33.72312         0.88915
C         37.89210        35.96125         0.83628
C         36.58322        35.23015         0.98634
C         37.92925        37.49798         0.76244
C         36.63243        38.08406         0.23531
C         37.84195        40.23644         0.02630
C         36.62602        39.56673         0.22051
C         37.85629        41.66656        -0.03626
C         36.66247        42.38012         0.37685
C         37.74232        44.55613        -0.06649
C         36.70194        43.76990         0.57912
C         37.89848        46.00832         0.17719
C         36.73705        46.44750         0.86869
C         40.31740        24.79031        -1.67283
C         39.26586        25.45767        -1.55698
C         40.34094        27.45069        -0.90739
C         39.07481        26.80499        -1.16097
C         40.31551        28.82757        -0.53099
C         39.07289        29.52427        -0.34571
C         40.32794        31.62465         0.10991
C         39.06447        30.90524         0.03298
C         40.36073        33.01188         0.31689
C         39.17149        33.75389         0.88284
C         40.30646        35.86415         0.03866
C         38.99967        35.12108         0.17984
C         40.21605        37.27383        -0.38368
C         39.06948        38.10191        -0.02576
C         40.30644        40.18645        -0.52759
C         39.06980        39.47625        -0.21824
C         40.30416        41.64827        -0.51457
C         39.06927        42.34308        -0.32491
C         40.31143        44.55658        -0.56412
C         39.05970        43.79046        -0.52926
C         40.30417        45.97759        -0.53453
C         39.05689        46.67609        -0.19775
C         40.29610        48.74957        -0.44752
C         39.27699        48.07798        -0.17656
C         42.89766        24.75477        -1.40857
C         41.60706        25.32402        -1.40230
C         42.81190        27.42008        -0.70524
C         41.58643        26.73122        -1.02121
C         42.79770        28.81814        -0.39271
C         41.55948        29.51914        -0.33222
C         42.79961        31.63206        -0.02078
C         41.55804        30.92096        -0.08086
C         42.78028        33.05293        -0.01055
C         41.57088        33.74221         0.15267
C         42.76370        35.94828        -0.13604
C         41.51599        35.20866         0.03805
C         42.77700        37.27946        -0.46220
C         41.51873        38.01135        -0.71754
C         42.77464        40.17938        -0.89213
C         41.49648        39.47982        -0.65915
C         42.76316        41.68459        -0.94297
C         41.49446        42.39187        -0.69156
C         42.77529        44.53183        -0.79132
C         41.52937        43.82276        -0.65022
C         42.76768        45.95406        -0.87780
C         41.53897        46.70214        -0.72980
C         42.83181        48.71806        -0.97949
C         41.55563        48.16142        -0.73257
C         43.93000        25.39862        -1.08679
C         45.26251        27.40552        -0.26688
C         44.08058        26.74185        -0.69916
C         45.24729        28.77843         0.04862
C         44.02698        29.51038        -0.09874
C         45.29635        31.64958         0.21763
C         44.03828        30.92414         0.02522
C         45.31124        33.06527         0.15704
C         44.06179        33.79385        -0.30727
C         45.32209        35.90784         0.05443
C         44.01199        35.19891         0.28243
C         45.35667        37.30987        -0.36683
C         44.05020        38.02822        -0.63902
C         45.23769        40.20568        -0.43770
C         44.05014        39.49638        -0.59752
C         45.24479        41.66779        -0.57049
C         44.04326        42.38875        -0.74770
C         45.27152        44.49040        -0.95240
C         44.02523        43.80793        -0.81248
C         45.24874        45.92086        -1.11267
C         44.04329        46.62871        -1.06476
C         43.86867        48.03082        -1.13201
C         47.56514        27.44966         0.19549
C         46.54305        26.76416        -0.06307
C         47.78257        28.79707         0.49760
C         46.42162        29.47075         0.73202
C         47.72491        31.66500         0.65831
C         46.49916        30.95905         0.48526
C         47.72321        33.09579         0.63784
C         46.49834        33.78465         0.40661
C         47.74136        35.99334         0.46072
C         46.50474        35.24505         0.30833
C         47.73225        37.40846         0.38368
C         46.53854        38.11063        -0.01894
C         47.63140        40.27834         0.33677
C         46.45824        39.49982        -0.08987
C         47.69668        41.74122        -0.02149
C         46.48043        42.38688        -0.58204
C         47.82224        44.37938        -1.23992
C         46.49635        43.74941        -0.90709
C         47.67159        45.83010        -1.41149
C         46.58301        46.40769        -1.26175
C         50.27271        28.97696         0.79019
C         48.96182        29.50940         0.69402
C         50.19327        31.67251         1.05069
C         48.97584        30.95573         0.82650
C         50.15791        33.11818         1.09688
C         48.94341        33.84135         0.84668
C         50.13860        36.02710         1.05989
C         48.94280        35.27325         0.79191
C         50.13387        37.46245         1.05212
C         48.92026        38.18338         0.69584
C         49.98553        40.44416         1.23508
C         48.88990        39.57162         0.64687
C         50.12930        41.81142         0.52362
C         49.03808        42.38202        -0.09670
C         50.41279        44.31404        -0.67527
C         49.10961        43.67411        -0.86228
C         51.35202        29.55371         1.05168
C         52.56787        31.79199         1.48523
C         51.46496        30.95728         1.21139
C         52.46620        33.04318         1.54693
C         51.35215        33.88032         1.34758
C         52.43757        36.14938         1.60021
C         51.33950        35.29273         1.35095
C         52.42929        37.40102         1.58553
C         51.30679        38.23083         1.33994
C         52.32204        40.55482         1.39034
C         51.30889        39.65168         1.31513
C         52.50975        41.80899         1.13890
C         51.45178        42.51072         0.57475
C         51.32451        43.80883         0.00833
O         48.57751        43.62385        -2.20840
O         47.33051        41.32253         1.37175
O         34.61925        30.90347         1.66979
O         42.77872        40.88960        -2.18948
O         44.86689        37.49929        -1.74801
O         40.67353        37.45658        -1.77463
O         36.08827        37.45110        -0.95708
O         38.02183        44.22180        -1.45158
O         37.13404        33.07115         2.09655
O         37.40971        35.59505         2.16146
O         32.71212        32.77337         2.35933
H         33.40615        32.09897         2.56646
O         38.52899        34.82849        -1.16480
H         38.76359        35.57547        -1.75743
O         36.10874        44.08202         2.87771
H         35.41006        44.37198         3.50091
O         43.89849        35.00615         1.72276
H         43.82130        35.88061         2.15711
O         49.62407        40.72317         2.60954
H         48.70188        41.08266         2.59317
O         44.15986        33.93535        -1.74728
H         44.17325        33.04151        -2.14790
O         39.52151        33.98634         2.25753
H         38.68448        33.93251         2.78086
O         38.09861        38.00643         2.11101
H         37.77754        37.30647         2.72862
O         31.68978        38.29589        -1.51687
H         30.96680        38.88271        -1.82194
O         46.17267        29.32433         2.17019
H         46.09038        28.36551         2.36242
