         324
 CSIRO Nanostructure Databank - Neutral Graphene Oxide Data Set
C          1.30511         3.46507         0.91659
C          0.24390         4.22515         1.40493
C          1.10982         6.25932         0.37691
C          0.16713         5.61372         1.19840
C          1.19300         7.72953         0.22864
C          0.00765         8.46815         0.23896
C          1.19468        10.60334         0.24861
C          0.00352         9.86831         0.19506
C          1.20571        12.05589         0.22842
C          0.00420        12.80787         0.19116
C          1.23228        14.91023         0.03905
C          0.01735        14.18804         0.11618
C          1.24846        16.35144        -0.11587
C          0.08455        17.14612        -0.03046
C          1.24880        19.19249        -0.68069
C          0.11529        18.54178        -0.23567
C          1.32464        20.66139        -0.98642
C          0.00781        21.39772        -0.97117
C          1.30130        23.44804        -0.79222
C          0.00209        22.73601        -0.92642
C          1.42297        24.91450        -1.07948
C          0.28853        25.70289        -1.61762
C          1.07209        27.76232        -0.48632
C          0.15246        27.02066        -1.38766
C          1.14789        29.23690        -0.64080
C          3.58036         3.46613        -0.15544
C          2.30957         4.08189         0.12546
C          3.85949         6.45707        -0.37208
C          2.06086         5.42724        -0.23974
C          3.71074         7.78955         0.14725
C          2.45082         8.43988         0.23281
C          3.64182        10.60948         0.49769
C          2.44097         9.89025         0.34851
C          3.67647        12.02991         0.36005
C          2.44051        12.75494         0.21363
C          3.70740        14.87839         0.00693
C          2.45992        14.18158         0.08343
C          3.69192        16.27568        -0.27003
C          2.49406        16.99896        -0.34853
C          3.75313        19.20664        -0.35924
C          2.53413        18.42974        -0.84719
C          3.68953        20.62979        -0.10381
C          2.31120        21.22321         0.13990
C          3.60915        23.51140         0.23979
C          2.24710        22.81689         0.24886
C          3.60039        24.89174         0.25107
C          2.61312        25.70796        -0.55367
C          3.45984        27.94362         0.53229
C          2.27807        27.06262         0.04713
C          3.58558        29.21397        -0.28311
C          2.33778        29.88111        -0.62886
C          6.03982         3.44143        -0.18910
C          4.80544         4.16409        -0.18673
C          6.02257         6.19079         0.77165
C          4.88703         5.60665        -0.02943
C          6.10332         7.70210         0.62040
C          4.94399         8.43878         0.51002
C          6.15101        10.63562         0.67859
C          4.88027         9.88862         0.95751
C          6.15932        12.00565         0.49734
C          4.90898        12.73526         0.38460
C          6.17396        14.84739         0.32555
C          4.94517        14.15660         0.21241
C          6.22051        16.28500         0.00413
C          4.95761        17.01975        -0.40356
C          6.21872        19.20375        -0.21726
C          4.93208        18.49597        -0.28168
C          6.17160        20.72995        -0.04380
C          4.85251        21.37041         0.12369
C          6.07592        23.50165         0.52590
C          4.84430        22.78829         0.39985
C          6.09112        24.92697         0.59166
C          4.80591        25.63087         0.65437
C          6.05638        27.81813         0.34960
C          4.77970        27.16164         0.66140
C          6.05775        29.15545        -0.15834
C          4.79797        29.79867        -0.49546
C          8.50225         3.39601        -0.15782
C          7.28390         4.06776         0.01149
C          8.62690         6.23738         0.29330
C          7.34253         5.47557         0.49147
C          8.64299         7.71079         0.33721
C          7.41758         8.37886         0.81657
C          8.64985        10.57181         0.41634
C          7.41336         9.89455         0.81938
C          8.62388        12.00907         0.43503
C          7.42765        12.71786         0.51092
C          8.62153        14.87540         0.76440
C          7.42260        14.17126         0.57683
C          8.62012        16.34157         0.94038
C          7.33770        17.08794         0.56812
C          8.58885        19.21664         0.52703
C          7.42252        18.51312         0.25272
C          8.56222        20.65779         0.59788
C          7.38373        21.38714         0.47031
C          8.52391        23.55407         0.82220
C          7.34043        22.81818         0.64029
C          8.53626        24.98124         0.76844
C          7.28201        25.67037         0.66521
C          8.51523        27.79354         0.32382
C          7.27403        27.10816         0.48960
C          8.51333        29.16816        -0.08907
C          7.26959        29.80953        -0.36340
C         10.93766         3.34869        -0.38823
C          9.75828         4.07688        -0.26577
C         10.92952         6.25403        -0.60059
C          9.79515         5.53841        -0.27110
C         10.99399         7.71864        -0.49628
C          9.79277         8.41665        -0.00615
C         10.99169        10.62094        -0.34459
C          9.79439         9.85747         0.08454
C         11.18436        11.99767         0.21658
C          9.91621        12.68404         0.66186
C         11.20695        14.90010         0.78506
C          9.90306        14.15852         0.92602
C         11.15658        16.40468         0.79275
C          9.86455        17.12011         0.86979
C         11.08485        19.25749         0.67511
C          9.83656        18.49806         0.75695
C         11.07530        20.62643         0.70466
C          9.81054        21.34016         0.96618
C         11.04784        23.59827         0.85019
C          9.79732        22.85034         1.03386
C         11.00683        24.97480         0.84125
C          9.76035        25.69958         0.80248
C         10.97374        27.83470         0.40044
C          9.76271        27.12035         0.54761
C         10.97410        29.19043        -0.06210
C          9.73600        29.83799        -0.29273
C         13.46652         3.32026        -0.75421
C         12.15484         3.98716        -0.87347
C         13.40838         6.21888        -1.23913
C         12.10276         5.49845        -1.08299
C         13.38983         7.71790        -1.23481
C         12.13605         8.41700        -0.86710
C         13.51435        10.63291        -0.85873
C         12.20669         9.90301        -0.83453
C         13.58103        12.03666        -0.83255
C         12.41061        12.78268        -0.18986
C         13.14822        15.13637        -0.66331
C         12.28388        14.27604        -0.04798
C         13.42545        16.50436        -0.26065
C         12.31741        17.16922         0.29602
C         13.58241        19.22869         0.34978
C         12.33518        18.56155         0.43119
C         13.61190        20.67180         0.50190
C         12.31462        21.38365         0.44042
C         13.60156        23.59277         0.70715
C         12.30954        22.87988         0.55392
C         13.55851        24.96719         0.79553
C         12.28575        25.70137         0.94215
C         13.52369        27.86948         0.33920
C         12.26604        27.21184         0.73514
C         13.46486        29.21042        -0.15975
C         12.20491        29.85525        -0.29958
C         15.92163         3.38455        -0.58622
C         14.65418         4.01880        -0.74556
C         15.92775         6.16250        -1.08989
C         14.62382         5.53434        -0.60640
C         15.91340         7.66886        -1.23234
C         14.67103         8.44431        -1.09830
C         15.98507        10.51608        -1.18702
C         14.71305         9.84768        -1.01835
C         16.07478        11.93965        -1.15235
C         14.87608        12.66724        -1.05022
C         16.02745        14.91004        -0.86031
C         14.98422        14.10452        -1.22553
C         15.93520        16.44324        -1.00618
C         14.70559        17.13227        -0.33278
C         16.06011        19.07622         0.60733
C         14.76642        18.47865         0.09666
C         16.05484        20.61224         0.77107
C         14.79584        21.38241         0.59468
C         16.07775        23.51614         0.70161
C         14.84697        22.83371         0.67559
C         16.08934        24.98881         0.86551
C         14.79538        25.76580         0.89998
C         15.93779        27.83749         0.02453
C         14.75675        27.19351         0.44741
C         15.90912        29.20016        -0.41799
C         14.67122        29.87057        -0.48875
C         18.36246         3.41563        -0.18221
C         17.13113         4.09853        -0.46889
C         18.38892         6.24617        -0.59653
C         17.18283         5.51167        -0.70023
C         18.43263         7.68715        -0.77870
C         17.20945         8.35297        -1.11427
C         18.88460        10.73801        -0.91381
C         17.12060         9.70903        -1.44973
C         18.60528        12.05769        -0.55022
C         17.37578        12.71694        -1.09868
C         18.49048        14.88343        -0.23086
C         17.32821        14.20754        -0.84374
C         18.57111        16.34418        -0.46284
C         17.29194        17.15552        -0.65745
C         18.59374        19.21037         0.33190
C         17.31050        18.54900        -0.07919
C         18.61282        20.61653         0.47679
C         17.35371        21.36186         0.71478
C         18.56255        23.50130         0.41782
C         17.34509        22.83787         0.56630
C         18.62078        24.98483         0.34050
C         17.34370        25.73780         0.51001
C         18.42681        27.76828        -0.64230
C         17.18792        27.06735        -0.15688
C         18.38283        29.25267        -0.62989
C         17.13586        29.89251        -0.67376
C         19.53578         4.11013        -0.07062
C         20.77377         6.24908        -0.02493
C         19.58070         5.53397        -0.23840
C         20.77926         7.63937        -0.05985
C         19.63824         8.39279        -0.40419
C         20.52645        10.49183         0.76647
C         19.71374         9.85379        -0.20400
C         20.48614        11.87636         0.94541
C         19.51923        12.69980         0.31250
C         20.60752        14.87934         0.99828
C         19.51470        14.16939         0.36629
C         20.73144        16.22544         0.90539
C         19.81106        17.03266         0.08942
C         21.02174        19.20321         0.42478
C         19.80715        18.50576         0.30050
C         21.03864        20.59194         0.43840
C         19.83380        21.32459         0.43465
C         20.94024        23.47099        -0.14046
C         19.81171        22.78411         0.27632
C         20.91196        24.85952        -0.48476
C         19.79414        25.62171        -0.30099
C         20.85620        27.90842        -0.01307
C         19.80009        27.09026        -0.70934
C         20.76009        29.27144         0.00265
C         19.57852        29.95581        -0.39965
O          1.90871        23.88967        -2.04113
O         15.92316         6.72432        -2.40875
O          1.10528        27.17575         0.87990
O         12.19659        22.22475        -0.78583
O         11.24213        10.53868        -1.78524
O          7.64679        16.77878         1.95777
O         12.31368        26.62181         2.08316
O         13.42781         6.91379        -2.50345
O          1.71303        23.10912         1.50522
O          9.80325        22.02041         2.27183
O         17.37655        18.33979        -1.52607
O         18.22926        10.28523        -2.06302
O          9.95157        13.19895         2.03551
O         12.26380        12.15236         1.16454
O         18.29926        25.71467         1.61488
O          2.86136         5.99025        -1.24938
O         17.54064        27.09817        -1.60162
O         17.64219        13.63961        -2.19466
O         11.56555        15.61859         1.99760
O         11.87430         4.61292        -2.21048
O         15.53912        25.48986         2.13358
O         16.73400        20.98078         2.02369
O          8.25430         5.64251         1.62194
O         14.51044         5.78290         0.77011
O         13.83802        14.67368        -1.77147
O         19.70009        16.67678        -1.33038
O          5.91961        16.54618        -1.40870
O          4.74016        26.40988         1.91420
O          6.40713        20.11185        -1.35146
O          7.53121         9.11844         2.08772
O          1.94291        20.90305        -2.25946
H          2.49536        20.12188        -2.50590
O          3.40661        26.05914        -1.73888
H          3.35197        25.28101        -2.34274
O          5.71596         5.93644         2.17256
H          6.57030         6.00415         2.65905
O         20.16280        27.11546        -2.12357
H         19.34629        26.89864        -2.62718
O          2.76408        18.31324        -2.30811
H          2.03932        17.76797        -2.68231
O          3.13986        28.42172         1.85327
H          3.21252        27.65257         2.46203
O         16.16521        18.50761         1.94857
H         16.45067        19.23908         2.54930
O          4.77840         9.79876         2.42273
H          5.64589         9.44674         2.73964
O         15.70851        16.65510        -2.41442
H         16.14725        17.50123        -2.66317
O          1.86650        20.68650         1.38792
H          1.63853        21.49530         1.93929
H          1.40352         2.40770         1.19974
H         -0.51250         3.74155         2.03844
H         -0.61780         6.19460         1.70265
H         -0.95451         7.93682         0.24992
H         -0.96587        10.38129         0.14456
H         -0.96671        12.29636         0.22352
H         -0.94119        14.72344         0.08995
H         -0.87976        16.68313         0.21790
H         -0.82059        19.09982        -0.09281
H         -0.93560        20.83959        -1.06643
H         -0.93910        23.30587        -0.95572
H         -0.42146        25.17805        -2.27344
H         -0.67804        27.57930        -1.84580
H          0.22875        29.77980        -0.91070
H          3.63705         2.36770        -0.08080
H          2.38435        30.95254        -0.87954
H          6.02155         2.36171        -0.40305
H          4.84812        30.78413        -0.98475
H          8.48799         2.31249        -0.35148
H          7.27459        30.84405        -0.73675
H         10.93557         2.26540        -0.19498
H          9.73119        30.87884        -0.64800
H         13.47195         2.22636        -0.61798
H         12.18397        30.89884        -0.64686
H         15.95741         2.28402        -0.54458
H         14.63893        30.91284        -0.83688
H         18.34240         2.32689        -0.03005
H         17.10260        30.98806        -0.77124
H         20.47031         3.58380         0.17258
H         21.69255         5.70385         0.23394
H         21.70894         8.17090         0.18754
H         21.22210         9.89934         1.37756
H         21.19647        12.32473         1.65347
H         21.32856        14.31314         1.60344
H         21.50739        16.74680         1.48487
H         21.96994        18.64826         0.42530
H         22.00510        21.11272         0.45355
H         21.88685        22.93386        -0.28590
H         21.81379        25.31118        -0.92139
H         21.76500        27.40608         0.34757
H         21.59749        29.87001         0.39041
H         19.55363        31.05407        -0.36010
