         651
 CSIRO Nanostructure Databank - Neutral Graphene Oxide Data Set
C          6.14188        31.35015         1.25319
C          6.14811        32.70274         1.45752
C          8.62880        27.22361         0.26927
C          8.56492        28.60657         0.24053
C          7.38663        29.27697         0.73119
C          8.35242        31.43357         0.07598
C          7.27312        30.64497         0.70279
C          8.34635        32.93872         0.29089
C          7.28684        33.52702         1.13642
C          8.61397        35.58598         1.36888
C          7.42383        34.81429         1.61110
C          8.73057        36.89721         1.86393
C         11.04758        22.99349        -0.54919
C         11.20125        24.41915        -0.09656
C          9.90247        25.14598         0.06072
C         10.97055        27.27952        -0.55332
C          9.82443        26.51224        -0.08407
C         10.89978        28.67964        -0.62846
C          9.70545        29.38172        -0.21880
C         10.74659        31.60295        -0.64984
C          9.63662        30.78340        -0.24848
C         10.72638        32.99961        -0.53159
C          9.61945        33.66174         0.13327
C         10.88428        35.77438         0.36415
C          9.68579        34.95815         0.62646
C         11.12746        36.90589         1.29863
C          9.94817        37.64638         1.81586
C         11.34136        39.71042         2.10527
C         10.10050        38.95733         2.24519
C         11.32501        41.10021         2.24198
C         13.21701        18.84923        -0.92303
C         13.20239        20.13086        -1.36430
C         11.91921        20.88716        -1.59300
C         13.25533        23.06978        -1.59618
C         12.05420        22.34723        -1.19417
C         13.28577        24.46040        -1.50930
C         12.20181        25.17976        -0.92985
C         13.30194        27.34390        -1.42599
C         12.14347        26.58225        -0.99952
C         13.23116        28.78578        -1.39700
C         12.04134        29.42840        -1.09310
C         13.07950        31.68240        -1.80174
C         11.90191        30.90153        -1.28137
C         13.14111        33.16494        -1.53034
C         11.89530        33.82191        -0.97408
C         13.37855        35.82207        -0.29956
C         12.02794        35.21021        -0.40951
C         13.52016        37.05205         0.33528
C         12.42923        37.59531         1.17594
C         13.81470        39.47476         1.74477
C         12.52209        38.97686         1.66161
C         13.77643        41.63704         1.81898
C         12.33929        42.04525         1.61269
C         13.42645        44.31765         1.30558
C         12.23737        43.55541         1.92446
C         13.45270        45.67859         1.41279
C         15.59787        14.55685         0.03746
C         15.70067        16.09174         0.15227
C         14.43011        16.82428        -0.22429
C         15.71568        18.74669        -1.06840
C         14.44386        18.07450        -0.77647
C         15.73444        20.09589        -1.70071
C         14.42079        20.80037        -1.88349
C         15.75421        23.03005        -2.37082
C         14.42176        22.29710        -2.10321
C         15.71301        24.48499        -1.92497
C         14.41021        25.22248        -2.19380
C         15.69584        27.40685        -2.05801
C         14.47439        26.68087        -1.80259
C         15.66558        28.79007        -2.10664
C         14.50818        29.58359        -1.54354
C         15.63855        31.75363        -1.98547
C         14.36275        30.95979        -2.24665
C         15.68236        33.09670        -1.63861
C         14.46406        33.82548        -1.34215
C         15.76985        35.86636        -0.90000
C         14.51958        35.14858        -0.87052
C         15.84012        37.18762        -0.42077
C         14.75366        37.79266         0.26605
C         16.10623        39.91696         0.76890
C         14.89966        39.04329         0.92810
C         16.07214        41.45451         0.84957
C         14.78549        42.17325         1.08945
C         15.83602        44.35689         0.39042
C         14.57964        43.58644         0.68134
C         15.82097        45.84052         0.56626
C         14.60391        46.50644         1.09651
C         15.84285        48.64336         1.39229
C         14.63007        47.85377         1.39485
C         15.88842        50.00324         1.61603
C         18.23083        10.45679         1.00414
C         18.20227        11.76517         0.62781
C         16.97408        12.53703         0.52248
C         18.20531        14.61252         0.07730
C         16.94950        13.86219         0.18408
C         18.18817        16.02343        -0.17835
C         16.89346        16.60894        -0.66883
C         18.13553        18.88884        -0.58702
C         16.89568        18.11398        -0.79228
C         18.18434        20.34402        -0.94824
C         17.00621        20.90928        -1.68055
C         18.31940        23.01106        -2.15360
C         16.99085        22.36170        -1.80712
C         18.30517        24.51665        -1.96188
C         17.00474        25.23053        -1.84198
C         18.17112        27.33996        -2.28641
C         16.98123        26.68997        -2.11538
C         18.15730        28.77200        -2.65766
C         16.86123        29.54009        -2.51906
C         18.20514        31.67334        -2.01563
C         16.88332        31.04589        -2.35104
C         18.24399        33.13645        -1.79122
C         16.97114        33.80031        -1.55995
C         18.24176        35.85802        -1.08484
C         16.96003        35.16991        -1.31110
C         18.24464        37.33173        -1.21996
C         17.01545        38.02006        -0.71706
C         18.26041        40.20731        -0.65964
C         17.32380        39.26529         0.10283
C         18.35349        41.63672        -0.27130
C         17.19414        42.25130         0.25358
C         18.36755        44.37355         0.24198
C         17.15033        43.65853         0.32666
C         18.43381        45.75041         0.86281
C         17.13295        46.53366         0.72035
C         18.40330        48.68172         1.09891
C         17.12664        47.91250         1.28974
C         18.35219        50.15095         1.17184
C         17.11943        50.77035         1.57927
C         18.33286        52.89797         1.82225
C         17.12790        52.13966         1.85951
C         18.36707        54.24733         2.23013
C         20.51360         6.66749         3.15533
C         20.58199         7.90254         2.43258
C         19.45499         8.42536         1.83275
C         20.77341        10.40833         1.07149
C         19.48873         9.61786         0.92235
C         20.79353        11.77918         0.51053
C         19.46568        12.47025         0.29400
C         20.63618        14.72526         0.64883
C         19.41784        13.94112         0.26181
C         20.66885        16.09434         0.00722
C         19.37425        16.80492        -0.15539
C         20.56574        19.04904         0.09488
C         19.39660        18.18574        -0.34241
C         20.65707        20.41289        -0.55789
C         19.49733        21.04749        -1.04252
C         20.76057        23.09230        -1.49505
C         19.53530        22.37840        -1.50406
C         20.77069        24.52376        -1.78577
C         19.48142        25.20553        -1.91666
C         20.74925        27.35544        -2.21441
C         19.45794        26.70924        -1.76684
C         20.73014        28.74303        -2.69292
C         19.44595        29.51320        -2.72954
C         20.77443        31.68963        -2.35687
C         19.48860        30.93673        -2.24770
C         20.75468        33.12626        -2.07773
C         19.49090        33.75442        -1.67079
C         20.86164        35.89778        -1.01127
C         19.54914        35.11589        -1.10016
C         20.71022        37.39840        -1.15541
C         19.53398        38.05565        -1.19554
C         20.72663        40.30810        -1.35813
C         19.47005        39.54077        -1.27336
C         20.55382        41.80948        -1.57362
C         19.50094        42.38726        -0.61175
C         20.87612        44.42935        -0.09989
C         19.54044        43.73573        -0.19525
C         20.78689        45.94726        -0.04915
C         19.60255        46.59240         0.39225
C         20.71522        48.78441         0.10371
C         19.55543        47.97804         0.51104
C         20.69613        50.27257         0.32751
C         19.50984        50.90453         0.96558
C         20.76602        53.00706         1.37979
C         19.54576        52.27772         1.35413
C         20.80708        54.31385         1.89326
C         19.58051        54.96849         2.28189
C         20.84133        57.02174         2.80557
C         19.62180        56.31582         2.71243
C         20.87974        58.37093         3.22540
C         22.81673         4.19466         4.78111
C         21.62483         4.83502         4.38008
C         22.90600         6.86511         3.73499
C         21.64439         6.09318         3.74290
C         23.02886         8.00932         2.80542
C         21.89116         8.53914         2.23645
C         23.22446        10.50865         1.37036
C         21.91907         9.81373         1.52337
C         23.23439        11.98097         1.16824
C         22.01093        12.61647         0.69963
C         23.14893        14.78733         0.73178
C         21.95320        13.98942         0.56696
C         23.11230        16.15564         0.66945
C         21.92612        16.87836         0.17544
C         23.04270        19.09779         0.32572
C         21.89595        18.34964         0.13751
C         23.09440        20.49452        -0.00542
C         21.89714        21.11389        -0.53823
C         23.24192        23.11154        -1.14731
C         21.93930        22.44106        -1.04565
C         23.24729        24.60938        -1.52608
C         21.94176        25.26830        -1.71624
C         23.22153        27.40672        -1.98431
C         21.95578        26.70576        -1.95916
C         23.27750        28.77393        -2.52974
C         21.99845        29.52382        -2.78281
C         23.22580        31.72838        -2.72359
C         21.94512        31.00841        -2.60787
C         23.21595        33.28088        -2.52846
C         21.92340        33.88283        -2.14492
C         23.19623        36.08553        -1.78747
C         21.86955        35.40125        -2.06717
C         23.20146        37.45222        -1.55749
C         21.99311        38.16886        -0.98229
C         23.18895        40.35539        -1.35854
C         21.92446        39.64595        -1.32368
C         23.18607        41.76761        -1.24756
C         21.95299        42.56037        -1.68513
C         23.20091        44.65632        -0.79856
C         21.86196        44.06678        -1.22423
C         23.22866        45.96916        -0.39647
C         21.98011        46.69697        -0.21217
C         23.23979        48.79451         0.20972
C         22.00832        48.08969        -0.01027
C         23.26983        50.18987         0.46191
C         22.02042        50.98441         0.37786
C         23.31046        52.97718         1.33734
C         22.02695        52.39437         0.89594
C         23.30237        54.32233         1.79367
C         22.06342        55.00605         2.03941
C         23.32108        57.03697         2.64888
C         22.07813        56.34383         2.49154
C         23.33593        58.39308         3.07156
C         22.10227        59.07023         3.35388
C         23.36445        61.09231         3.89986
C         22.14473        60.42679         3.76824
C         24.05809         4.77884         4.63147
C         25.47904         6.79511         3.91846
C         24.18465         6.17538         4.23610
C         25.56026         7.99013         3.21420
C         24.40219         8.38624         2.31960
C         25.65708        10.64353         2.12687
C         24.48649         9.81670         1.79504
C         25.54363        12.14093         2.15030
C         24.38051        12.69675         1.37042
C         25.62163        14.90617         1.30708
C         24.47898        14.07425         0.78373
C         25.53539        16.26794         1.36955
C         24.24646        16.96296         1.15260
C         25.45129        19.27738         1.22497
C         24.20565        18.45859         0.99061
C         25.51494        20.65390         0.67475
C         24.33213        21.21875         0.08975
C         25.58372        23.29980        -0.30956
C         24.40743        22.54212        -0.44541
C         25.51766        24.77673        -0.45078
C         24.39365        25.43431        -1.12887
C         25.61928        27.61669        -1.25658
C         24.40125        26.81363        -1.44198
C         25.68442        28.91067        -1.71671
C         24.55662        29.57092        -2.41299
C         25.71547        31.80855        -2.55666
C         24.47671        31.04407        -2.44738
C         25.69033        33.27321        -2.26926
C         24.49237        33.92882        -2.13296
C         25.65991        36.06593        -1.36849
C         24.38191        35.25408        -1.37988
C         25.65478        37.44465        -1.42503
C         24.42857        38.19086        -1.44889
C         25.65269        40.36236        -1.49815
C         24.42730        39.62775        -1.40227
C         25.65341        41.75430        -1.31787
C         24.42519        42.43664        -1.13613
C         25.68397        44.61569        -0.71593
C         24.41667        43.81679        -0.53961
C         25.67345        45.94006        -0.04061
C         24.46315        46.64965        -0.03598
C         25.68556        48.69488         0.58615
C         24.46015        48.04038         0.26718
C         25.68176        50.08402         0.89017
C         24.48853        50.83398         0.82883
C         25.75832        52.90992         1.45997
C         24.50729        52.25034         1.20775
C         25.77219        54.30517         1.77383
C         24.54472        54.99726         1.99194
C         25.79477        57.05458         2.55313
C         24.55020        56.36294         2.39336
C         25.79414        58.39955         2.95249
C         24.58080        59.08337         3.21846
C         24.56842        60.44215         3.63384
C         26.77119         8.71402         3.14799
C         28.02303        10.82819         2.73772
C         26.83067        10.05392         2.65325
C         28.07073        12.18619         2.30183
C         26.85936        12.84283         1.91816
C         28.09200        14.93179         1.60190
C         26.87723        14.21253         1.57723
C         28.08722        16.37150         1.31568
C         26.76612        17.08761         1.33326
C         28.04301        19.32358         1.68857
C         26.72267        18.56625         1.59281
C         27.99573        20.70308         1.06311
C         26.74268        21.35217         0.68830
C         27.96924        23.49641         0.33671
C         26.76094        22.72642         0.24888
C         28.02824        24.85409         0.03587
C         26.76363        25.59328        -0.13705
C         28.13920        27.59467        -0.85702
C         26.78222        27.10367        -0.37814
C         28.18999        29.04205        -1.14771
C         26.89601        29.74100        -1.54698
C         28.29853        31.79328        -2.11689
C         27.01255        31.03852        -2.27690
C         28.28172        33.30010        -1.97820
C         26.93687        33.89201        -1.70541
C         28.21573        36.05249        -1.12676
C         26.93233        35.33954        -1.23870
C         28.14818        37.52506        -0.82950
C         26.95116        38.16743        -1.51005
C         28.22586        40.39533        -1.46944
C         26.94552        39.65838        -1.67801
C         28.21361        41.74820        -1.34338
C         26.93560        42.51808        -1.64490
C         28.24209        44.52379        -0.52729
C         26.96054        43.97120        -1.12425
C         28.13429        45.77220         0.34467
C         26.88093        46.56904         0.31620
C         28.17667        48.64005         0.76562
C         26.90921        47.94306         0.60951
C         28.19559        49.99371         1.07112
C         26.92609        50.68132         1.49735
C         28.23410        52.82846         1.50522
C         26.98612        52.18365         1.40978
C         28.32719        54.33280         1.62525
C         27.01133        55.01233         1.92861
C         27.01200        56.34147         2.29779
C         29.28870        12.91477         2.28193
C         30.53832        15.03653         1.91603
C         29.32303        14.28916         1.94648
C         30.58516        16.42636         1.60733
C         29.32891        17.15664         1.46744
C         30.49987        19.29212         1.22534
C         29.29040        18.52939         1.35732
C         30.46283        20.67594         1.15762
C         29.20207        21.38638         1.03582
C         30.45985        23.62486         0.95070
C         29.11853        22.89490         1.10421
C         30.50178        24.91649         0.21733
C         29.31097        25.51820        -0.16845
C         30.57784        27.43578        -1.26155
C         29.29012        26.84653        -0.79357
C         30.68073        28.92880        -1.43182
C         29.45416        29.71529        -1.42462
C         30.74316        31.79537        -1.58972
C         29.51327        31.08317        -1.68435
C         30.72926        33.24353        -1.47311
C         29.49943        33.96020        -1.47816
C         30.67378        36.03603        -0.88132
C         29.45052        35.35200        -1.15201
C         30.66404        37.52760        -0.60260
C         29.44008        38.20024        -1.14241
C         30.77309        40.31904        -1.26226
C         29.51051        39.59405        -1.70609
C         30.80646        41.77652        -1.43151
C         29.47315        42.54095        -1.43669
C         30.74576        44.62601        -1.08461
C         29.52447        43.95549        -1.05217
C         30.83018        46.12021        -1.11849
C         29.34028        46.51194         0.78187
C         30.68045        48.63174         0.64643
C         29.42028        47.90417         0.68843
C         30.65473        50.01312         0.94235
C         29.44479        50.70069         1.17077
C         29.43004        52.10069         1.42016
C         31.77758        17.12682         1.45763
C         32.97450        19.29569         1.49422
C         31.79201        18.54422         0.97306
C         33.00712        20.68478         1.39725
C         31.76765        21.38669         0.85002
C         33.05796        23.59997         0.97407
C         31.74514        22.87821         1.13416
C         33.11024        24.82692         0.17116
C         31.81998        25.38187        -0.32135
C         33.16433        27.46229        -1.30204
C         31.86322        26.67145        -1.07222
C         33.07271        28.83265        -0.58482
C         31.94152        29.65031        -1.20642
C         33.21367        31.75663        -1.21444
C         31.93212        31.03178        -1.29549
C         33.21914        33.25878        -1.17532
C         31.92586        33.95920        -1.17447
C         33.13883        36.05428        -0.54982
C         31.89600        35.34547        -0.87694
C         33.16184        37.47288        -0.57076
C         31.95082        38.15198        -1.15914
C         33.18306        40.35544        -0.76176
C         31.93867        39.65008        -0.99378
C         33.20835        41.77401        -0.78936
C         32.02109        42.50932        -1.06749
C         33.22425        44.62748        -0.72598
C         32.00079        43.91268        -1.03908
C         33.18087        46.02561        -0.40751
C         31.99024        46.74892        -0.40883
C         31.88740        48.02273         0.21613
C         34.21820        21.38251         1.50676
C         35.57243        23.42069         0.71892
C         34.33591        22.81439         1.20447
C         35.58046        24.71694         0.23201
C         34.32912        25.37655        -0.15638
C         35.73859        27.37862        -0.85199
C         34.42640        26.64760        -0.92147
C         35.71754        28.87618        -0.73456
C         34.41584        29.58132        -0.52644
C         35.65915        31.81512        -0.83377
C         34.36035        31.10569        -0.47672
C         35.62854        33.25851        -0.49383
C         34.41055        33.94058        -0.61273
C         35.52814        35.99348         0.18158
C         34.32463        35.32249        -0.31976
C         35.51970        37.53616         0.21812
C         34.32105        38.21091        -0.29388
C         35.61171        40.33833        -0.26979
C         34.37068        39.63186        -0.46900
C         35.62084        41.74809        -0.33785
C         34.43832        42.48307        -0.56390
C         34.40945        43.90534        -0.54102
C         36.83366        25.43456         0.18049
C         38.07963        27.56844         0.04135
C         36.91279        26.76365        -0.17847
C         38.16074        28.91835        -0.28467
C         37.03971        29.56930        -1.07625
C         38.16822        31.83748        -0.44839
C         36.97484        31.09675        -0.92133
C         38.10634        33.21711        -0.20109
C         36.85485        33.94580        -0.23520
C         38.03057        36.05741         0.29884
C         36.82385        35.31534         0.07782
C         38.00752        37.46992         0.35325
C         36.82331        38.22891         0.17321
C         36.81888        39.61226        -0.02889
C         39.31551        29.69295        -0.00286
C         40.53134        31.83149         0.25436
C         39.34805        31.09330        -0.10673
C         40.51689        33.19376         0.35609
C         39.29677        33.94077         0.18535
C         39.25390        35.32058         0.38049
O         11.99661        31.31727        -2.70598
O         25.84777        19.07480         2.63424
O         17.29046        37.90798        -2.15304
O         35.23769        29.16618         0.62789
O         27.37894        29.85664        -0.18913
O         21.39826        28.98148        -4.00005
O         35.36063        26.66674        -2.05596
O         16.48162        46.51333        -0.57443
O         18.75741        29.14246        -3.95461
O         35.32015        36.74269         1.42540
O         14.14644        21.36623        -3.21459
O         31.10802        23.47995         2.28905
O         23.39614         7.12657         5.08075
O         23.56231        23.56428        -2.51002
O         33.53960        32.49666        -2.41211
O         28.49795        32.67408        -3.26833
O         14.02074        40.53307         2.63395
O         21.51186        16.26165        -1.15637
O         23.78439        17.82405         2.25401
O         22.33389        38.08674         0.40358
O         11.06105        36.14228        -1.04540
O          7.86418        32.34777        -0.95986
O         26.23505        44.81845        -2.06985
O         24.11084         9.89369         0.34778
O         28.11730        44.42934         0.95500
O         27.43317        16.79359         0.04229
O         12.13672        36.62803         2.32146
O         14.91818        43.93257        -0.68921
O         22.27813        42.61532        -3.06322
O         17.86245        19.98475         0.44247
O         31.81636        25.42474        -1.82101
O         12.20179        33.86602        -2.40694
O         24.19299        28.90452        -3.67973
O         16.26391        24.78082        -0.61613
O         22.05343        52.11137        -0.55985
O         26.81936        34.19428        -0.28918
O         20.40866        49.73992        -1.00517
O         23.26830        32.67816        -3.84942
O         30.03800        46.76956        -1.79417
O         16.59605        20.12241        -2.89492
O         26.53995        31.15917        -3.63002
O         16.73492        30.44010        -3.66964
O         30.19519        42.24399        -2.68390
O         18.89690        30.98651        -0.89377
O         25.78131        25.32615         0.91961
O         18.01190        48.08427         2.44130
O         20.21538        11.86213        -0.85079
O         30.57429        27.97768        -2.61654
O         36.29598        31.61319        -2.13187
O         18.36531        40.05074        -2.09031
O         18.82438        35.31327         0.15228
O         33.72818        23.68901         2.26716
O         27.09729        38.74535        -2.83397
O         16.53362        40.63018         1.97793
O         24.67767         7.42601         1.14815
O         24.35792        43.56296         0.91344
H         23.40462        43.50334         1.17077
O         21.47209        43.98456         1.16290
H         20.82716        44.18124         1.87869
O         28.66399        23.14506         2.47645
H         29.46777        23.12420         3.04864
O         20.27237        19.32747         1.51682
H         19.37036        19.73621         1.53397
O         15.94265        16.36897         1.55125
H         15.99953        17.34045         1.66961
O         19.52088         9.10961        -0.45829
H         19.66720         9.89977        -1.03279
O         15.87739        23.08877        -3.83868
H         15.56063        22.20456        -4.15722
O         26.80395        50.39297         2.95358
H         26.00841        50.86769         3.27705
O         26.95336        42.60032        -3.09245
H         26.39839        43.37445        -3.34768
O         21.40988        44.80242        -2.37266
H         21.70449        44.23974        -3.14575
O         11.00773        44.07545         1.43763
H         10.91184        43.74659         0.51672
O         19.92568        41.98004        -2.85494
H         20.68275        42.16867        -3.48028
O         28.86840        54.87360         0.40149
H         28.24252        54.67080        -0.32399
O         20.46723        15.02238         2.08232
H         20.43926        14.17617         2.57631
O         10.84762        20.24245        -0.92074
H         10.00389        20.53060        -1.32118
O         28.25258        19.58874         3.11575
H         27.37840        19.87224         3.47497
O         30.28845        45.76066         1.36811
H         29.90143        44.85497         1.47944
O         14.90672        29.92021        -0.16918
H         15.02032        29.08450         0.33209
O         18.53814        22.79006        -3.58860
H         17.68066        22.98843        -4.04286
O         25.19485        12.45124         3.57127
H         25.96891        12.19812         4.12036
O         11.78559        24.34497         1.26992
H         12.61970        23.83330         1.19683
O         23.51519         7.32759         0.30970
H         23.54360         8.18787        -0.19168
O         14.99093        14.17972        -1.19965
H         15.49706        14.61907        -1.92122
O         32.65234        28.55283         0.77067
H         32.85863        29.33503         1.32674
O         24.09283        34.85304         0.00269
H         23.13692        35.07472         0.20382
O         21.45495        35.63536         0.28360
H         21.74002        36.53067         0.65679
O         18.11841        38.73364         1.20190
H         18.00009        39.33756         1.97147
O         24.84180        13.85738        -0.63040
H         24.12801        13.32598        -1.04440
O         33.24417        27.78832        -2.69092
H         33.15951        26.95894        -3.20743
O         31.90977        21.32883        -0.60374
H         31.98420        20.36758        -0.84474
O         14.26371        30.74875        -3.65878
H         13.30995        30.79905        -3.90283
O         34.09487        31.42677         0.92032
H         34.69451        30.86251         1.46239
O         18.64589        45.49221         2.28428
H         18.59219        46.37079         2.74087
O         31.93637        18.51467        -0.52548
H         31.18736        17.98439        -0.87590
O         16.70369        16.10683        -2.03564
H         17.42555        16.46288        -2.59609
O         21.36167        35.85098        -3.34895
H         21.94397        35.50679        -4.05877
O         19.41301        26.97823        -0.31480
H         18.68875        26.43548         0.06639
O         26.58374        27.71890         0.91873
H         26.00066        27.11382         1.43447
O         27.89066        37.67802         0.64457
H         27.26872        36.96611         0.91488
O         31.98781        37.89125        -2.58757
H         31.22996        38.37168        -3.00791
O         30.66122        37.72543         0.84539
H         29.72259        37.63254         1.14759
O         37.33763        29.28671        -2.45732
H         36.89752        29.97888        -3.00250
O         14.14870        25.21223        -3.62277
H         14.59325        24.42041        -4.01446
O         29.66435        39.48502        -3.16771
H         29.66821        40.40946        -3.51567
O         12.08853        41.97562         0.16976
H         12.04121        41.03248        -0.09463
H          5.27512        30.75572         1.57796
H          5.28773        33.18162         1.94796
H          7.76310        26.64931         0.63150
H          6.57894        28.66535         1.16069
H          6.62446        35.25576         2.22532
H          7.85322        37.34989         2.35106
H         10.15398        22.43611        -0.22922
H          9.03106        24.58576         0.43272
H          9.21661        39.50065         2.61463
H         10.36607        41.56037         2.53213
H         12.26889        18.37999        -0.62189
H         11.72085        20.86718        -2.70776
H         12.25809        43.71188         3.03580
H         12.58463        46.18387         1.86482
H         14.92356        14.19123         0.85490
H         13.47231        16.38842         0.09939
H         13.70068        48.34656         1.72011
H         14.95034        50.55614         1.77657
H         17.28487         9.93311         1.21299
H         16.02559        12.00467         0.69120
H         16.19594        52.63826         2.16472
H         17.43555        54.73902         2.54740
H         19.54578         6.14779         3.22109
H         18.49575         7.89629         1.94538
H         18.68396        56.82204         2.98502
H         19.93684        58.88743         3.45939
H         22.75535         3.15924         5.14570
H         20.67141         4.29357         4.45910
H         23.37555        62.14355         4.22034
H         21.20383        60.95232         3.98551
H         24.97221         4.18547         4.77667
H         26.38214         6.39110         4.40253
H         26.74960        58.93257         3.06791
H         25.52159        60.97851         3.74525
H         27.65567         8.30528         3.65975
H         28.94374        10.35096         3.10257
H         29.06878        54.58815         2.42720
H         27.96849        56.87512         2.40086
H         30.22248        12.40375         2.55853
H         31.48514        14.50899         2.10494
H         31.59800        50.58035         0.93052
H         30.38655        52.63964         1.48605
H         32.73856        16.60176         1.56467
H         33.86530        18.74275         1.82808
H         34.09074        46.48637         0.00920
H         32.82629        48.56368         0.42076
H         35.13734        20.81826         1.72903
H         36.52254        22.88319         0.85789
H         36.56692        42.28676        -0.17909
H         35.33571        44.45055        -0.30489
H         37.72007        24.93398         0.59934
H         38.93668        27.09758         0.54869
H         38.96559        38.00597         0.43359
H         37.76965        40.16579        -0.00117
H         40.20263        29.17947         0.39979
H         41.45647        31.27082         0.45205
H         41.43338        33.73894         0.62502
H         40.18368        35.85986         0.61643
