         280
 CSIRO Nanostructure Databank - Neutral Graphene Oxide Data Set
C        -11.28325         0.57293        -0.39768
C        -10.11605         1.45301        -0.79636
C         -8.80456         0.64811        -0.81510
C         -7.51936         1.40202        -0.92350
C         -6.19896         0.70058        -0.70065
C         -5.01294         1.44586        -1.32885
C         -3.68267         0.67441        -1.20378
C         -2.41615         1.49496        -1.09292
C         -1.21372         0.86022        -0.44116
C          0.10499         1.59602        -0.49265
C          1.38218         0.82221        -0.66983
C          2.57141         1.51629        -1.28453
C          3.86387         0.77230        -1.20840
C          4.96737         1.54532        -0.51157
C          6.25089         0.72699        -0.44474
C          7.55004         1.47551        -0.41179
C          8.64044         0.69841         0.22822
C          9.57833         1.43774         1.06948
C         10.49748         0.63260         1.87190
C         -9.99912         2.72733         0.07891
C         -8.74060         3.55965        -0.17202
C         -7.52599         2.90325        -0.74680
C         -6.20607         3.58595        -0.52759
C         -4.88978         2.79441        -0.54627
C         -3.78024         3.68794        -1.12145
C         -2.45491         2.98088        -1.24769
C         -1.26710         3.73819        -0.74225
C          0.07550         3.06773        -0.69124
C          1.27334         3.79793        -1.22309
C          2.55489         3.03179        -1.31653
C          3.87107         3.77165        -1.20696
C          5.11611         2.99681        -0.94169
C          6.27001         3.67718        -0.71493
C          7.56482         2.96900        -0.43249
C          8.65365         3.73409         0.35549
C          9.55399         2.80099         1.14699
C         -8.69535         4.84232         0.26062
C         -7.44019         5.59647         0.67760
C         -6.14034         4.89821         0.22651
C         -4.89051         5.71155         0.04226
C         -3.79760         5.16487        -0.84300
C         -2.52116         5.97813        -0.97121
C         -1.27139         5.21900        -0.68565
C          0.03932         5.92679        -0.48369
C          1.31484         5.33357        -1.07435
C          2.51174         5.67872        -0.16292
C          3.83866         5.21677        -0.74566
C          5.09639         5.91138        -0.35107
C          6.29235         5.16541        -0.90912
C          7.69268         5.97031         1.13588
C          7.91819         4.68158         1.33877
C         -7.36754         7.07759         0.37323
C         -6.15708         7.82823         0.88115
C         -4.84876         7.17843         0.40459
C         -3.68804         8.02960        -0.00310
C         -2.48827         7.43965        -0.67832
C         -1.17278         8.24676        -0.51873
C          0.05710         7.38807        -0.21706
C          1.40789         8.09917        -0.15782
C          2.51663         7.14360         0.32367
C          3.81656         7.76663         0.75845
C          5.09864         7.13482         0.27556
C          6.37970         7.98171         0.28230
C          7.51913         7.27592         1.03934
C         -6.14605         9.32865         0.64638
C         -5.05957        10.08066         0.40436
C         -3.71946         9.55174        -0.05483
C         -2.46857        10.03453         0.67269
C         -1.24706         9.41939         0.44682
C         -0.00109         9.90924         0.95146
C          1.28644         9.33845         0.70186
C          2.45363         9.90599         1.18487
C          3.79438         9.21038         1.30911
C          5.01547        10.01216         0.95645
C          6.18965         9.41493         0.73379
C        -11.22547        -0.76330        -0.18741
C         -9.98334        -1.51221        -0.09637
C         -8.73389        -0.66659        -0.03329
C         -7.53016        -1.53704        -0.46037
C         -6.19898        -0.77507        -0.48395
C         -4.99050        -1.59938        -0.94948
C         -3.66905        -0.79813        -0.91474
C         -2.46924        -1.42664        -0.24679
C         -1.20744        -0.60183        -0.13590
C          0.10680        -1.32421         0.08231
C          1.39695        -0.62855        -0.30165
C          2.52796        -1.45431        -0.85614
C          3.83109        -0.75686        -1.14629
C          5.09290        -1.54953        -1.03663
C          6.30841        -0.75766        -0.68709
C          7.66871        -1.40382        -0.74254
C          8.71716        -0.65304         0.03369
C          9.85403        -1.39320         0.62235
C         10.59721        -0.70349         1.70287
C         -9.93721        -2.88725        -0.00753
C         -8.71595        -3.64939         0.19815
C         -7.48966        -2.80151         0.44329
C         -6.15412        -3.53938         0.34796
C         -4.90058        -2.88958        -0.14974
C         -3.64100        -3.75463        -0.34808
C         -2.41077        -2.90647        -0.04782
C         -1.06568        -3.60685        -0.23157
C          0.13506        -2.80877         0.24504
C          1.46123        -3.54154         0.19133
C          2.55155        -2.93580        -0.63853
C          3.82941        -3.68511        -0.89017
C          5.11864        -2.92574        -1.05097
C          6.43815        -3.68098        -1.45290
C          7.73167        -2.89571        -0.97535
C          8.98006        -3.67420        -0.47950
C          9.94199        -2.86842         0.41275
C         -8.66900        -5.00864         0.40876
C         -7.43630        -5.75131         0.66400
C         -6.13930        -5.06851         0.27182
C         -4.89355        -5.64297         0.93904
C         -3.61405        -4.94274         0.62970
C         -2.29358        -5.65938         0.85311
C         -1.04158        -5.06580         0.28396
C          0.24595        -5.78591         0.55356
C          1.53592        -5.00564         0.47174
C          2.78709        -5.73987         0.12736
C          3.87503        -5.09143        -0.39525
C          5.07644        -5.82990        -0.83661
C          6.45395        -5.19301        -1.07551
C          7.55543        -5.71530        -0.18840
C          8.68668        -5.03956         0.10179
C         -7.40936        -7.06811         1.04126
C         -6.15083        -7.84527         1.26946
C         -4.84984        -7.11651         1.23728
C         -3.59485        -7.82216         0.74681
C         -2.30013        -7.12588         1.15760
C         -1.04067        -7.97925         1.33594
C          0.27215        -7.17671         1.15441
C          1.53773        -7.93492         0.87266
C          2.78511        -7.19791         0.44925
C          3.92981        -8.00187        -0.02121
C          5.07565        -7.29900        -0.66344
C          6.40521        -7.96568        -0.38404
C          7.51156        -7.04211        -0.94357
C         -6.06756        -9.31355         1.05060
C         -4.88522        -9.97520         0.96260
C         -3.57781        -9.32006         0.88929
C         -2.39770        -9.98897         0.76346
C         -1.06752        -9.28004         0.51521
C          0.16711       -10.13892         0.91070
C          1.48891        -9.41140         0.62970
C          2.55445       -10.09498         0.14104
C          3.75234        -9.42084        -0.50570
C          5.10974       -10.11515        -0.54952
C          6.28162        -9.45545        -0.67403
O          0.27516         2.51396         0.63680
O         -3.76902         7.48053         1.35700
O         -2.28688        -6.14879         2.23098
O         -0.43577        -5.91903        -0.74418
O          2.92408        -1.18433        -2.21618
O         -2.15900         2.14671        -2.39438
O          3.92686         4.87108        -2.16631
O         -2.67235        -2.04345         1.07164
O          3.31002         1.15541        -2.49756
O          0.07502        -1.96122         1.40478
O         -5.40002        -7.48310         2.51644
O          1.80857        -4.02067         1.52688
O         -5.22632        -2.00758        -2.30500
H         -4.80141        -1.34262        -2.89798
O          7.98026         2.19397        -1.61014
O          0.03925         6.44076         0.89153
O          9.48474         4.47562        -0.53111
H          8.90426         4.98718        -1.14285
O          4.49459         1.70636         0.85512
H          4.71685         0.88435         1.35264
O         -7.79831        -2.00480        -1.79104
H         -7.81385        -1.22405        -2.39123
O         -3.40612        -0.30545        -2.26386
O          0.11610       -11.36564         0.18780
H         -0.01191       -11.13447        -0.75685
O          3.86267        -7.67846         1.39019
O         -2.59377         6.94663        -2.05552
O          3.35878        -9.27947        -1.90618
H          3.42571       -10.15728        -2.33564
O         -0.86547        -3.63424        -1.66183
H         -1.59809        -4.15412        -2.06867
O        -10.40858         1.91697        -2.13017
H         -9.63407         1.69221        -2.69976
O          1.58744         9.87909        -1.73906
H          0.62874         9.85828        -2.00797
O         -5.24532        -2.81412         1.24117
O         -1.09395        -8.43196         2.69972
H         -1.17309        -7.63951         3.27554
O          7.21058         5.66665        -1.55808
O          6.62844        -7.89279         1.05531
H          5.80006        -8.14844         1.52101
O          6.79055         8.20821        -1.08180
H          7.10015         7.35985        -1.48838
O          1.76121         3.39074        -2.51943
O         -3.59674         9.96706        -1.43899
H         -2.68300         9.76079        -1.75224
O          6.40129        -3.64085        -2.87564
H          6.88903        -2.83839        -3.17266
O         -6.87726         3.68071        -1.80896
O         10.79132        -2.00158        -0.37232
O         -5.99068        -5.34866        -1.16523
O         -1.46297         0.40440         0.90954
O         -9.97690         2.31944         1.44380
H         -9.74550         3.08529         2.00811
O         -7.61781        -2.43356         1.83443
O         -5.95693         0.13706         0.61797
O          7.04894        -6.19451        -2.07220
O          1.87264         8.47679        -1.51906
H         -1.15465         8.17102        -2.50589
O         -5.10498         4.89770         1.25264
O          3.91753         9.09606         2.76698
H          3.31757         8.36501         3.04512
O         -7.53171         5.47310         2.12879
H         -6.94080         6.16702         2.52591
O          1.18245        -7.44886         2.23125
O         -4.27626        -4.79319         1.92032
O         -4.20349         4.62019        -2.14335
O          2.91891         7.06603         1.71171
O         -8.15045         0.77247        -2.11390
O          6.15282        -0.20424         0.68856
O          2.35112         4.82523         0.98991
H          1.63550         5.19132         1.55806
O         -0.94991        -8.99182        -0.89247
H         -1.70583        -8.42154        -1.16225
O         -1.56551         4.40282         0.51398
O         -3.55147        -4.25754        -1.68872
H         -4.44407        -4.62561        -1.92003
O          8.10207        -1.93110        -2.02450
O         -0.95324         8.85755        -1.82430
O          1.42979         5.93090        -2.36481
H          2.09817         5.40743        -2.87340
O         -9.58051        -0.70009         2.20569
H         -9.15539        -1.55006         2.50418
O          1.83280         0.34704         0.67105
O          9.74139        -4.00767        -1.66212
H         10.18531        -3.17698        -1.94933
O         -4.82834        -8.00164        -1.31417
H         -4.55387        -8.74464        -1.90587
O         -6.14593         7.71551         2.35291
H         -5.19632         7.76423         2.61981
O         -3.56107        -7.54759        -0.75596
H         -5.91370        -6.32543        -1.28592
O          4.76198        -6.75603        -1.96022
O          2.78072        -3.60599        -1.91640
O         -8.54416        -0.15242         1.35495
H         -6.74537        -2.07718         2.12774
O         -4.49577         2.39285         0.76664
H         -4.52968         3.17633         1.36928
O         -5.31103         1.65281        -2.70221
H         -4.57426         2.14288        -3.12507
H         11.31378        -1.29251         2.29338
H         11.11022         1.14549         2.62775
H         10.28866         3.29845         1.79908
H          7.51038         4.21325         2.25404
H          8.30541         7.93823         1.44513
H          7.09054        10.03753         0.61670
H          4.97362        11.09593         1.14269
H          2.37271        10.84181         1.76216
H         -0.03459        10.80541         1.59139
H         -2.51775        10.92667         1.31614
H         -5.17355        11.17568         0.36902
H         -7.09102         9.84176         0.88635
H         -8.31731         7.63663         0.33003
H         -9.62465         5.27515         0.66911
H        -10.90570         3.37149        -0.11441
H        -12.26854         1.06360        -0.41454
H        -12.16239        -1.31917        -0.02390
H        -10.88509        -3.44717        -0.06278
H         -9.60733        -5.58668         0.38890
H         -8.36082        -7.59249         1.22615
H         -7.00747        -9.88644         1.03637
H         -4.89290       -11.07347         0.88562
H         -2.39021       -11.09024         0.79992
H          0.09764       -10.37884         2.00093
H          2.42679       -11.17596        -0.04101
H          5.10419       -11.21235        -0.66411
H          7.21034       -10.03637        -0.79737
H          8.48507        -7.54172        -1.15344
H          9.58165        -5.61754         0.38571
H         10.50285        -3.46896         1.16538
