         280
 CSIRO Nanostructure Databank - Neutral Graphene Oxide Data Set
C         30.26533        31.48349         0.42385
C         30.34473        32.71207         0.54029
C         30.48579        36.05786         0.71709
C         30.38707        37.24445         0.36837
C         30.66622        40.26685         1.35398
C         30.87082        41.21712         2.11288
C         32.53717        28.60490        -0.52102
C         31.48656        29.19875        -0.23983
C         32.51893        31.37857        -0.51351
C         31.18106        30.62419        -0.34385
C         32.65816        32.83989        -0.12116
C         31.49588        33.62495         0.44648
C         32.50113        35.80251        -0.63440
C         31.36341        35.06956         0.06999
C         32.57386        37.35036        -0.80361
C         31.37376        38.19197        -0.13817
C         32.96127        40.14594         0.56914
C         31.55025        39.57958         0.39784
C         33.26158        41.28878         1.48878
C         31.86415        42.31658         2.13144
C         33.68017        42.97665         3.69412
C         32.50725        42.80796         3.35051
C         35.43113        27.02079        -0.72876
C         35.09326        28.42574        -1.01205
C         33.93644        29.13102        -0.32553
C         35.10830        31.37799        -0.92177
C         33.81962        30.62565        -0.77162
C         35.16974        32.87734        -0.60797
C         33.80871        33.55123        -0.78763
C         35.13995        35.73242        -0.92707
C         33.78928        35.03919        -0.93857
C         35.19712        37.18324        -0.67583
C         33.89834        37.83130        -0.23580
C         35.50196        39.63302         0.48918
C         34.07335        39.14816         0.41918
C         35.79100        40.73326         1.44337
C         34.60001        41.27116         2.21496
C         36.26267        42.71756         3.53045
C         34.87649        42.17552         3.39618
C         36.48498        44.04950         4.11139
C         37.83965        26.92572        -1.12638
C         36.47816        26.41040        -0.96311
C         37.74821        28.46395        -1.33751
C         36.39996        29.18315        -1.23099
C         37.65483        31.40371        -1.21519
C         36.42726        30.62850        -0.68696
C         37.60927        32.87743        -1.52441
C         36.27731        33.55880        -1.42008
C         37.66453        35.71368        -1.82528
C         36.29842        35.03966        -1.58331
C         37.54739        37.28403        -1.85666
C         36.21346        38.02726        -1.44208
C         37.66541        40.24122        -0.73402
C         36.42312        39.39129        -0.68235
C         37.92389        41.32513         0.29254
C         37.01959        41.56272         1.28860
C         38.36734        43.53659         2.13544
C         37.28993        42.50842         2.41117
C         38.42820        44.83744         2.89651
C         37.44482        44.81576         3.99551
C         40.05200        24.63195         0.94731
C         39.17424        25.01742         0.16767
C         40.26107        27.15839        -0.14829
C         39.06785        26.28820        -0.56057
C         40.23637        28.59104        -0.59680
C         39.00945        29.25710        -1.18080
C         40.16148        31.49124        -1.45163
C         38.97915        30.76340        -0.83281
C         40.10489        32.96995        -1.78301
C         38.81664        33.80838        -1.74198
C         40.10807        35.91613        -1.52517
C         38.95300        35.22060        -1.15054
C         40.12698        37.38386        -1.83493
C         38.80767        38.11577        -1.75085
C         40.17499        40.35494        -1.36493
C         38.86126        39.61296        -1.41880
C         40.23871        41.77265        -0.80824
C         39.04410        42.35478         0.00515
C         40.83277        43.80775         1.33423
C         39.53865        43.04687         1.31674
C         40.97443        44.99895         2.27991
C         39.73944        45.51824         3.03087
C         40.82309        47.73650         3.18291
C         39.89672        46.93763         3.34358
C         42.29042        25.10845         2.22918
C         41.43155        25.10881         1.04987
C         42.69166        27.45818         0.86216
C         41.54253        26.51968         0.38229
C         42.60446        28.87842         0.27657
C         41.52523        29.36246        -0.65909
C         42.69666        31.66586        -0.82277
C         41.49368        30.82675        -1.11466
C         42.48728        33.15989        -0.68550
C         41.42820        33.71294        -1.66507
C         42.70859        35.94474        -1.73556
C         41.38961        35.19882        -1.72983
C         42.74828        37.42160        -1.93249
C         41.42638        38.17152        -1.92980
C         42.79160        40.37195        -1.46226
C         41.48449        39.60807        -1.45667
C         42.79862        41.88419        -1.35598
C         41.53534        42.54343        -0.79782
C         43.00596        44.50648         0.06420
C         41.58359        43.89604        -0.00883
C         43.35364        45.40146         1.28885
C         42.17648        45.92095         2.14267
C         43.26912        48.16462         2.20979
C         42.17334        47.37332         2.76350
C         42.93332        26.00388         2.78153
C         43.89016        28.47371         2.96715
C         43.00266        27.42481         2.39518
C         44.23704        29.73758         2.16797
C         43.29450        30.04368         0.99679
C         45.08205        31.80029         0.21775
C         43.82166        31.04327        -0.01996
C         45.11227        33.25327        -0.16801
C         43.84270        33.93156        -0.60556
C         45.28644        35.93333        -1.47629
C         43.97595        35.19894        -1.40399
C         45.34598        37.38482        -1.96515
C         44.04785        38.18894        -2.08402
C         45.36251        40.44616        -2.13721
C         44.03124        39.69785        -2.01967
C         45.41336        41.99803        -2.01797
C         44.10949        42.63551        -1.44724
C         45.62427        44.41279        -0.19247
C         44.20894        43.96846        -0.69540
C         45.63702        45.94044         0.18787
C         44.43287        46.49956         0.85480
C         44.29920        47.67708         1.71564
C         46.06958        28.81211         4.03739
C         44.94593        28.30466         3.96549
C         46.49931        30.12872         3.52944
C         45.51238        30.51414         2.41128
C         47.34999        32.13683         1.43652
C         46.05613        31.37832         1.29940
C         47.61610        33.32458         0.51905
C         46.47154        33.89442        -0.33143
C         47.59674        36.22654        -0.30630
C         46.54120        35.30074        -0.85892
C         47.65617        37.63888        -0.82927
C         46.63977        38.14494        -1.84339
C         48.00526        40.33786        -2.16919
C         46.64542        39.63567        -2.15319
C         47.93952        41.68988        -1.47079
C         46.68939        42.47466        -1.32915
C         48.18373        44.61103        -0.94347
C         46.80755        43.96068        -1.08686
C         48.08467        45.77053        -0.03551
C         47.03410        46.36330         0.24190
C         49.00002        30.47884         4.39543
C         47.78233        30.86701         3.67529
C         49.54809        32.62878         2.73571
C         48.17020        32.01052         2.70783
C         49.93585        33.66359         1.68606
C         48.84914        34.15816         0.74576
C         49.96943        36.54017         0.82860
C         48.77865        35.65908         0.49827
C         50.08512        37.93544         0.18732
C         48.92120        38.43802        -0.62318
C         50.37027        40.16275        -1.68109
C         49.15656        39.58094        -1.53050
C         50.35608        41.57157        -2.19100
C         49.28687        42.35541        -1.42025
C         50.81142        44.26956        -1.29266
C         49.44088        43.80338        -1.06716
C         50.06842        31.07787         4.54666
C         51.60171        33.12365         3.90794
C         50.75506        31.93669         3.53688
C         51.79442        34.11820         3.20565
C         51.14456        34.53468         1.93917
C         52.33118        36.26482         0.41808
C         51.27045        35.95733         1.45588
C         52.39666        37.36035        -0.13844
C         51.53968        38.58824        -0.02528
C         52.52916        40.78030        -0.84732
C         51.69565        39.58438        -1.19871
C         53.02610        41.89978        -0.90689
C         53.21558        43.30837        -0.98192
C         52.01461        44.05001        -1.13340
O         32.59551        33.19514         1.30849
O         40.10819        31.93872        -2.81231
O         35.63520        36.25616         0.35827
O         45.97566        39.99233        -3.37906
O         38.08574        37.91186        -3.02368
O         34.34958        30.97895        -2.07517
O         48.44434        33.20703         3.48691
O         46.96344        37.32232         0.41803
O         51.19751        33.46986         0.97907
O         37.36136        41.81730         3.71389
O         42.73366        28.73681        -1.16642
O         47.29719        30.85369         0.74293
O         46.96578        34.17713        -1.66427
O         38.54823        28.88065        -2.48756
O         35.89362        34.17351        -2.67052
O         42.04531        25.29402        -0.22590
O         31.37744        35.24268        -1.37262
O         36.10487        39.33642         1.78081
O         35.48982        28.86397        -2.31388
O         46.33438        37.40416        -3.04558
O         31.54530        31.19306        -1.59939
O         37.55398        31.84032        -2.57204
O         42.67383        46.25840         3.49848
O         40.70960        37.81729        -3.12061
O         44.30217        34.05019         0.77353
O         49.15660        38.87083         0.76662
O         46.62883        31.20757         4.47621
O         48.88543        36.38284         1.76472
O         43.38369        45.00216        -1.24097
O         36.52245        40.50724        -1.60440
O         42.80197        36.51583        -3.07202
O         42.46533        28.41582         3.28011
O         51.09573        42.05635        -3.01866
O         38.47684        43.39439        -0.72443
O         33.32078        41.47127         0.05871
O         38.78187        26.25376        -1.97087
O         47.37655        44.76251        -2.14560
O         44.26735        30.95052         3.00241
O         44.70306        46.76613        -0.52327
O         38.22593        34.73271        -2.94977
O         41.63464        34.31542        -2.94196
O         42.50408        31.10404        -2.13106
O         39.89805        28.21577         0.79812
O         43.16518        42.61760        -2.55674
O         37.83073        44.79653         1.59164
O         48.78284        33.21911        -0.35266
O         39.37333        40.33767        -2.57263
O         43.82422        38.99607        -3.27418
O         42.29545        39.73204        -0.23699
O         44.99372        30.77288        -0.81410
O         47.18438        41.66873        -0.22464
O         33.56849        34.14535        -2.07005
O         40.70663        42.49920         1.97915
O         44.83104        35.06623        -2.56040
O         31.02526        39.33900        -0.92248
O         40.59544        42.66214        -1.89497
O         34.61241        40.77374         3.58939
O         49.60679        42.74486        -0.05331
O         40.71838        44.68855         3.68465
O         33.84335        37.94573         1.21639
O         39.19453        30.89825         0.58414
H         38.40405        30.53057         1.05294
O         35.54135        32.99651         0.79616
H         34.73901        33.17470         1.33930
O         45.56320        42.51817        -3.34442
H         44.67802        42.51077        -3.77825
O         52.29700        38.88742        -2.28657
H         52.40594        39.49944        -3.04449
O         43.92237        26.93354         0.33628
H         43.85672        26.91110        -0.64440
O         35.53098        38.33157        -2.65644
H         36.15093        38.83419        -3.23334
O         31.60155        43.30229         1.22672
H         31.29574        42.92040         0.37870
O         51.54949        36.78327         2.57906
H         52.09020        36.27107         3.22319
O         40.81553        44.86963        -0.72827
H         39.96045        44.43185        -1.02547
O         51.87145        39.25872         1.16130
H         51.79439        38.62458         1.91477
O         36.58395        30.48290         0.74962
H         36.28595        31.33167         1.16843
O         32.56229        37.61574        -2.19265
H         31.83071        37.11119        -2.60897
O         44.03383        44.53045         2.20457
H         43.91989        44.88469         3.11664
O         42.18829        30.76580         1.62233
H         41.94320        30.29825         2.45598
O         34.20330        29.15844         1.07589
H         34.27389        28.23759         1.40559
O         41.81136        33.37420         0.57768
H         42.11724        32.70746         1.23947
O         54.42406        43.85259        -0.90790
H         54.38870        44.82640        -0.98987
O         51.44751        31.14999         2.61811
H         52.24838        30.76754         3.03038
O         48.40348        40.59034        -3.52438
H         47.58015        40.64040        -4.07146
O         45.86784        43.62932         0.98289
H         46.75803        43.82977         1.34069
