         671
 CSIRO Nanostructure Databank - Neutral Graphene Oxide Data Set
C          6.12009        31.95476        -0.45172
C          6.10497        33.30607        -0.26920
C          8.48063        27.62322        -0.00176
C          8.44623        28.98335         0.14778
C          7.29330        29.77641        -0.21452
C          8.25762        31.80647         0.81767
C          7.21054        31.13236         0.01659
C          8.32398        33.27147         0.86260
C          7.18896        34.02789         0.38212
C          8.24533        36.09269         1.33163
C          7.16011        35.39447         0.55099
C          8.36747        37.54483         0.99583
C         10.81287        23.26238        -0.38891
C         10.37762        24.37552         0.31057
C          9.53429        25.44926        -0.08307
C         10.71283        27.41826         1.06077
C          9.61559        26.79288         0.37846
C         10.78252        28.84923         1.18171
C          9.73370        29.69443         0.47807
C         10.72769        31.79580         1.44038
C          9.50622        31.03532         1.13884
C         10.74680        33.18252         1.44875
C          9.52148        33.93525         1.21265
C         10.79683        36.04756         1.24478
C          9.55783        35.35549         1.24571
C         10.83583        37.47522         1.13803
C          9.58862        38.21020         0.98894
C         10.87337        40.32093         0.81733
C          9.64827        39.62109         0.82128
C         10.90910        41.72515         0.65337
C         13.31734        19.03258        -0.35445
C         13.27903        20.39198        -0.25532
C         12.06634        21.16855        -0.35755
C         13.23293        23.17135         0.51834
C         12.01966        22.51936        -0.05002
C         13.21520        24.56932         0.98701
C         12.09322        25.23738         1.36054
C         13.15185        27.52322         1.18028
C         11.93160        26.69678         1.66388
C         13.21108        28.84371         1.97210
C         11.88601        29.54512         1.70941
C         13.23871        31.81124         2.05148
C         11.87797        31.00928         1.87194
C         13.22169        33.17646         1.55586
C         12.01388        33.88429         1.44966
C         13.25493        35.99952         1.09318
C         12.02443        35.30854         1.22864
C         13.28544        37.39494         1.10321
C         12.07428        38.15754         1.11066
C         13.33161        40.30053         0.86833
C         12.11299        39.59536         0.95373
C         13.36750        41.70198         0.67136
C         12.12900        42.42834         0.57463
C         13.37087        44.51943         0.20445
C         12.15744        43.83307         0.37718
C         13.39538        45.91443        -0.08348
C         15.90367        14.92087        -1.60690
C         15.83174        16.27065        -1.10039
C         14.61622        16.91225        -0.88322
C         15.84887        19.00924        -0.32041
C         14.57288        18.21805        -0.15260
C         15.77820        20.43021         0.17077
C         14.54506        21.21743        -0.31768
C         15.65579        23.06616         1.21760
C         14.44356        22.52256         0.46283
C         15.75962        24.58789         1.20518
C         14.49936        25.31711         0.96993
C         15.70755        27.49902         1.60776
C         14.49059        26.79438         1.12183
C         15.70891        28.84148         1.76225
C         14.44661        29.66529         1.50745
C         15.80985        31.69954         1.78324
C         14.54127        31.02656         2.24578
C         15.77543        33.04681         1.18026
C         14.46985        33.76380         1.00849
C         15.81108        35.95059         0.92264
C         14.48700        35.24765         0.64458
C         15.84565        37.31587         0.92019
C         14.59210        38.08502         1.15638
C         15.88513        40.26515         0.74477
C         14.60748        39.57998         1.05040
C         15.86335        41.70809         0.57700
C         14.62077        42.40491         0.53836
C         15.83517        44.49481        -0.01011
C         14.61650        43.80330         0.26283
C         15.82318        45.89216        -0.32451
C         14.58258        46.58496        -0.34819
C         15.82877        48.76470        -0.71597
C         14.50507        48.03903        -0.74906
C         15.84022        50.13898        -0.82971
C         18.19197        10.98296        -3.39069
C         18.25570        12.29344        -2.79129
C         17.09100        12.93432        -2.39921
C         18.38677        14.90284        -1.60378
C         17.10154        14.26517        -1.86953
C         18.32973        16.20535        -0.88532
C         17.06414        16.96004        -0.83221
C         18.34503        19.16012        -0.62143
C         17.05292        18.35418        -0.52971
C         18.30064        20.41305         0.28191
C         17.06360        21.26447        -0.02207
C         18.21929        23.03899         1.50867
C         16.98590        22.44282         0.90199
C         18.22847        24.57078         1.20802
C         16.91005        25.25118         1.48228
C         18.20912        27.40891         1.83543
C         16.90463        26.66945         2.03592
C         18.22720        28.79063         1.92809
C         16.95692        29.53089         2.29719
C         18.25586        31.63194         1.66832
C         16.98258        30.98993         1.86956
C         18.32665        33.02817         1.09615
C         17.03920        33.81226         1.12498
C         18.31730        35.90429         0.94896
C         17.05295        35.17727         0.92829
C         18.40450        37.31394         0.37265
C         17.02325        38.07528         0.33291
C         18.32249        40.34179         0.88245
C         17.05580        39.54855         0.70495
C         18.33121        41.60302         0.02221
C         17.06040        42.39592         0.24534
C         18.32127        44.40114        -0.56410
C         17.05705        43.76049        -0.03608
C         18.30248        45.90820        -0.51489
C         17.07144        46.60049        -0.53530
C         18.28901        48.73340        -0.78265
C         17.05850        48.02792        -0.66516
C         18.29889        50.16166        -0.91092
C         17.06419        50.87949        -0.91897
C         18.27831        53.00947        -1.13585
C         17.06715        52.28274        -1.04371
C         18.29685        54.41729        -1.32266
C         20.69101         6.84698        -4.57986
C         20.42599         8.22399        -4.70838
C         19.26819         8.94079        -4.32763
C         20.59261        11.07773        -3.99949
C         19.27849        10.32250        -3.95689
C         20.58759        12.42529        -3.31366
C         19.53566        13.00539        -2.65266
C         20.88900        15.02386        -1.68496
C         19.58206        14.29658        -1.94754
C         20.88458        16.38308        -1.06582
C         19.58886        16.92856        -0.55791
C         20.69635        18.94597         0.30558
C         19.58003        18.37678        -0.24175
C         20.78106        20.37147         0.59188
C         19.59445        21.22745         0.17268
C         20.78112        23.26111         1.05350
C         19.51263        22.46785         1.00130
C         20.67740        24.47526         2.00804
C         19.43459        25.27563         1.74040
C         20.69682        27.39000         1.87259
C         19.44488        26.66970         1.83100
C         20.70102        28.79518         1.91102
C         19.46224        29.50637         1.94992
C         20.69651        31.68773         2.25349
C         19.43720        30.94288         1.89717
C         20.70043        33.14596         1.84450
C         19.52744        33.82211         1.56410
C         20.69768        36.04234         1.58428
C         19.47690        35.25304         1.31833
C         20.74939        37.48185         1.27383
C         19.58479        38.12845         0.91433
C         20.80236        40.27908         0.78981
C         19.59668        39.55603         0.78605
C         20.79266        41.70846         0.53413
C         19.58702        42.40484         0.28260
C         20.73674        44.56513         0.17577
C         19.57995        43.79745         0.02229
C         20.79749        45.93552        -0.28905
C         19.53450        46.60934        -0.60055
C         20.75105        48.72659        -1.09299
C         19.51205        48.00935        -0.79542
C         20.77521        50.18589        -1.03087
C         19.53219        50.88006        -0.99235
C         20.75610        53.01435        -1.13588
C         19.52360        52.29940        -1.08537
C         20.73285        54.42876        -1.20017
C         19.50462        55.12700        -1.37508
C         20.67807        57.24008        -1.90120
C         19.52522        56.53750        -1.72464
C         20.65258        58.68879        -2.33239
C         23.25253         4.15613        -4.70264
C         22.06794         4.88383        -4.77208
C         23.24351         6.93487        -4.06819
C         22.00664         6.27858        -4.51974
C         23.31099         8.26741        -3.62463
C         22.23916         9.18887        -3.90856
C         23.96930        11.30355        -2.99714
C         21.62806        10.24060        -3.25227
C         23.70536        12.45875        -2.10388
C         22.54469        13.28936        -2.33394
C         23.10711        14.65584        -0.38047
C         22.17943        14.29123        -1.49335
C         23.19857        16.06404         0.00081
C         22.14742        17.03930        -0.48859
C         23.12763        18.70207         1.04022
C         21.82949        18.00927         0.67821
C         23.08199        20.11586         1.58564
C         21.88297        20.94444         1.16810
C         23.14952        23.01818         1.75689
C         21.98886        22.39140         1.39229
C         23.21812        24.50087         2.10931
C         21.93914        25.27370         1.88830
C         23.20639        27.38074         1.71278
C         21.94261        26.64480         1.81147
C         23.20237        28.79057         1.79505
C         21.97243        29.52862         1.89709
C         23.21585        31.69003         1.88827
C         21.95897        30.92146         1.93353
C         23.15193        33.12747         1.54240
C         21.97987        33.81555         1.71377
C         23.27751        36.00706         1.54906
C         21.97997        35.29135         1.75929
C         23.30840        37.50198         1.55305
C         21.98581        38.27257         1.71222
C         23.26023        40.30754         0.87631
C         22.04425        39.62768         1.04691
C         23.25970        41.72376         0.59794
C         22.02458        42.40609         0.51039
C         23.27179        44.62629         0.59796
C         21.98209        43.87796         0.56200
C         23.23027        46.14908         0.44763
C         22.01033        46.61986        -0.32920
C         23.30091        48.78327        -0.68015
C         22.09326        47.96885        -0.88186
C         23.26204        50.16795        -0.89428
C         22.00753        50.88186        -1.03714
C         23.24640        53.02531        -1.08850
C         22.00536        52.30552        -1.07810
C         23.26053        54.43667        -1.20209
C         21.99497        55.16839        -1.12923
C         23.22818        57.21420        -2.08449
C         21.98207        56.65413        -1.52601
C         23.17992        58.46590        -2.76227
C         21.95064        59.17320        -2.94413
C         23.14130        60.91345        -4.17426
C         21.94590        60.36806        -3.64804
C         24.43242         4.76608        -4.27688
C         25.65450         6.66209        -3.36580
C         24.44583         6.12489        -3.89930
C         25.72951         7.92768        -2.77070
C         24.45909         8.70060        -2.77728
C         25.77688        10.49160        -1.48303
C         24.57110        10.10236        -2.29612
C         25.72308        11.81860        -0.82743
C         24.53086        12.66908        -1.03144
C         25.55309        14.29679         0.68832
C         24.33011        13.79194        -0.10850
C         25.53732        15.81745         0.81028
C         24.35884        16.58475         0.60490
C         25.54025        18.67643         1.55550
C         24.29835        18.00360         1.01908
C         25.58300        20.11020         1.05847
C         24.30518        20.93105         1.08769
C         25.69696        23.01016         1.44058
C         24.45893        22.24283         1.91200
C         25.73238        24.51080         1.66532
C         24.37173        25.16202         1.33659
C         25.62663        27.35879         1.17373
C         24.41283        26.66553         1.50868
C         25.64041        28.75852         1.21254
C         24.55584        29.45633         1.99693
C         25.71631        31.71074         1.28825
C         24.53182        30.98350         1.83554
C         25.67888        33.09416         1.07193
C         24.32699        33.73307         0.81141
C         25.64878        35.99892         0.65652
C         24.36421        35.26457         0.83749
C         25.70890        37.46712         0.84750
C         24.52917        38.19170         1.04350
C         25.73710        40.29246         0.63230
C         24.52119        39.60659         0.89723
C         25.71969        41.72448         0.44432
C         24.49982        42.41625         0.43594
C         25.76602        44.59854         0.16171
C         24.45854        43.86852         0.01764
C         25.77609        46.01170         0.07012
C         24.53826        46.74990        -0.01977
C         25.75810        48.86289        -0.39447
C         24.53314        48.11579        -0.34716
C         25.74100        50.22233        -0.67109
C         24.48822        50.92332        -0.85193
C         25.74497        53.10836        -0.72162
C         24.48027        52.31432        -0.96959
C         25.71087        54.47010        -1.36429
C         24.48184        55.14709        -1.45802
C         25.65971        57.09566        -2.44698
C         24.43778        56.50076        -1.96862
C         25.61433        58.35412        -3.08042
C         24.39536        59.02962        -3.27961
C         24.34382        60.27022        -3.98397
C         26.95393         8.52012        -2.34597
C         28.21658        10.50698        -1.38540
C         27.05709         9.80995        -1.75897
C         28.21425        11.81214        -0.77882
C         26.96583        12.50954        -0.44352
C         28.16669        14.24775         0.82083
C         26.89076        13.72447         0.18124
C         28.13812        15.75682         1.14658
C         26.77039        16.50413         1.21613
C         28.09026        18.63516         1.52221
C         26.82460        17.96234         1.23710
C         28.12137        20.15827         1.47779
C         26.86106        20.84975         1.05594
C         28.08129        23.00211         0.61765
C         26.82181        22.33655         1.10911
C         28.10442        24.49230         0.82128
C         26.87622        25.21131         0.95020
C         28.02678        27.30236         0.34343
C         26.81143        26.59538         0.78844
C         28.05171        28.79883         0.32779
C         26.78581        29.53722         0.73189
C         28.09065        31.65647         0.66625
C         26.89187        30.98350         0.98823
C         28.10545        33.08249         0.61012
C         26.87817        33.80562         0.73380
C         28.10635        35.93228         0.40054
C         26.89861        35.22773         0.58788
C         28.13758        37.38219         0.37051
C         26.94616        38.13359         0.58413
C         28.19131        40.25550         0.27095
C         26.95886        39.56600         0.51490
C         28.18142        41.69897         0.16550
C         26.96827        42.42152         0.23675
C         28.20957        44.55703        -0.00864
C         26.97237        43.86098         0.14731
C         28.23415        45.99562        -0.04974
C         27.02645        46.70641         0.00128
C         28.28823        48.91721        -0.24239
C         26.99712        48.21362         0.17900
C         28.18652        50.11472        -1.19065
C         26.97769        50.95781        -0.86983
C         28.21732        53.00931        -1.40242
C         26.98909        52.31598        -1.04133
C         28.16735        54.36790        -1.71856
C         26.92852        55.09251        -1.77879
C         26.88389        56.38956        -2.31562
C         29.40112        12.50589        -0.53752
C         30.56201        14.54670         0.11185
C         29.40665        13.79709         0.07329
C         30.60479        15.92528         0.52966
C         29.36278        16.58991         0.95748
C         30.67077        18.68217         1.42641
C         29.35774        17.92795         1.26149
C         30.61260        20.19478         1.24531
C         29.38470        20.89860         1.23116
C         30.58494        23.01622         1.01818
C         29.35908        22.28548         1.01946
C         30.56273        24.43533         0.95803
C         29.34564        25.14869         0.79266
C         30.56608        27.39429         0.72311
C         29.35767        26.58695         0.47097
C         30.54775        28.76876         0.70653
C         29.32833        29.51285         0.49430
C         30.56842        31.64569         0.52928
C         29.32185        30.91094         0.53803
C         30.57018        33.04528         0.29427
C         29.31915        33.78349         0.31373
C         30.51066        35.89981        -0.23801
C         29.30621        35.18618         0.21027
C         30.55207        37.36476        -0.15158
C         29.37884        38.07506         0.13131
C         30.65330        40.21784         0.00908
C         29.39535        39.52888         0.12029
C         30.66918        41.67332        -0.01601
C         29.41227        42.39812        -0.04935
C         30.63570        44.51416        -0.50621
C         29.40085        43.80262        -0.17306
C         30.67636        45.97982        -0.41538
C         29.51738        46.68139        -0.19467
C         30.74022        48.77080        -0.99894
C         29.56011        48.15260        -0.32960
C         30.68595        50.15941        -1.30857
C         29.48530        50.89055        -1.26416
C         29.43916        52.27516        -1.47134
C         31.76719        16.64372         0.41445
C         33.06842        18.80714         0.75952
C         31.74456        18.14280         0.47949
C         33.08640        20.15642         1.00330
C         31.82505        20.89119         1.11366
C         33.08451        23.02837         1.07926
C         31.84059        22.31807         1.09067
C         33.11244        24.44641         1.04607
C         31.82490        25.17255         1.15140
C         33.08315        27.35590         0.63761
C         31.81242        26.67031         1.08263
C         33.08098        28.82409         0.98128
C         31.75687        29.53046         1.20964
C         32.98785        31.70002         0.85547
C         31.78863        30.97816         0.77188
C         33.03029        33.08077         0.52181
C         31.81052        33.71731         0.17627
C         33.11297        35.83182        -0.37441
C         31.80994        35.10053        -0.31923
C         33.08992        37.31911        -0.55358
C         31.76770        38.09595        -0.69499
C         33.11946        40.18294        -0.12704
C         31.85539        39.51519        -0.18044
C         33.15845        41.64237         0.29590
C         31.87858        42.34799        -0.03949
C         33.18077        44.55460        -0.05846
C         31.94042        43.75759        -0.40753
C         33.13288        45.93277        -0.67207
C         31.94918        46.63770        -0.72926
C         31.90266        48.02411        -1.12162
C         34.31521        20.90991         1.08722
C         35.65092        22.99022         1.27337
C         34.32326        22.27985         1.12427
C         35.59349        24.49420         1.13205
C         34.33364        25.17660         1.03942
C         35.53117        27.32272         1.13031
C         34.34638        26.61698         1.01129
C         35.54352        28.79620         1.46943
C         34.23808        29.50092         1.14859
C         35.49319        31.73387         1.39809
C         34.21001        30.98110         1.30151
C         35.48202        33.21954         1.16083
C         34.27446        33.84741         0.59128
C         35.59003        35.88223         0.06404
C         34.33899        35.17358         0.16352
C         35.61998        37.30062        -0.50029
C         34.33436        38.01091        -0.01555
C         35.59734        40.20437        -0.19359
C         34.32760        39.50391        -0.20190
C         35.60573        41.60335        -0.29322
C         34.40520        42.37368        -0.18360
C         34.40969        43.73680        -0.35278
C         36.77709        25.20452         1.13187
C         37.99487        27.36239         1.08241
C         36.79610        26.63761         1.12858
C         38.04743        28.79479         1.00601
C         36.74272        29.54667         0.84758
C         38.11024        31.72126         1.27025
C         36.80584        30.97981         1.36929
C         38.07935        33.15659         0.89858
C         36.83313        33.94100         0.99761
C         38.05761        35.92499         0.07715
C         36.79360        35.26409         0.35391
C         38.06889        37.34533        -0.03254
C         36.86870        38.06727        -0.10578
C         36.81810        39.46726        -0.10774
C         39.24368        29.46092         0.95632
C         40.33585        31.56709         0.06175
C         39.42863        30.95405         1.09880
C         40.27282        32.88191        -0.21651
C         39.16780        33.72596         0.23462
C         39.20103        35.12741        -0.03681
O         31.35069        44.03038        -1.71008
O         21.50463        48.14103        -2.20539
O         23.83056         9.13768        -1.46439
O         23.86501        11.36013        -4.21527
O         12.35201        31.53121         3.16434
O         22.03967        56.25695        -0.12724
O         21.57685         8.92252        -5.14186
O         31.81171        26.04888         2.38766
O         24.08647        31.57571         3.11593
O          8.46530        31.13193         2.14123
O         24.67479        35.76542        -0.50126
O         28.08017        19.50228         2.78741
O         29.21888        48.99360         0.87098
O         21.25454        35.77380         2.93683
O         31.01638        35.32575        -1.52102
O         33.32352        36.44864        -1.70030
O         23.13349        13.66788         0.73337
O         34.72005        31.41608         2.62281
O         36.10417        33.92913         2.27103
O         37.55032        31.28971         2.57582
O         14.68446        26.20220        -0.22743
O         27.14617        29.30302        -0.69743
O         20.97788        16.24937        -2.52194
O         18.98320        16.09589         0.49798
O         28.70748        26.78520        -0.84629
O         23.69297        36.72117         2.75172
O         15.02019        32.97714        -0.11854
O         21.83179        13.02382        -3.49957
O         10.92606        24.51344         1.61298
O         27.94863        49.56707        -2.47650
O         22.71467        44.24265         1.87349
O         27.49674        15.97886         2.40504
O         25.44557        10.59487        -0.05079
O         26.31973        20.26545        -0.19692
O         14.69507        38.92012         2.38000
O         23.99641        21.32228        -0.26366
H         24.81555        21.18007        -0.79816
O         18.46224        19.49510        -2.02034
H         19.20538        20.13570        -2.12157
O         12.83881        27.86321        -0.20464
H         13.31626        27.18971        -0.75767
O         14.70263        30.85536         3.67151
H         13.86639        30.44645         4.00603
O         14.34236        30.01600         0.12340
H         13.88903        29.27530        -0.35279
O         21.06946        23.81281        -0.28856
H         22.02196        24.07449        -0.30852
O         24.70387        21.97928         3.30627
H         23.96020        21.40246         3.62190
O         20.66520        31.74928         3.72883
H         20.68110        30.82871         4.06783
O         35.68456        28.85138         2.90851
H         35.53677        29.78885         3.18974
O         28.02833        22.84576        -0.85052
H         28.76600        23.36737        -1.23323
O         13.52337        48.73105         0.03334
H         13.80664        48.70692         0.97012
O         21.80477        38.53252         3.13092
H         21.94779        37.66551         3.58279
O         33.11729        44.74112         1.39631
H         33.97576        45.10873         1.69278
O         33.24239        41.59637         1.75882
H         34.02918        41.05875         1.99029
O         18.59949        32.80066        -0.33996
H         18.56949        33.67291        -0.78920
O         35.72998        37.27407        -1.93741
H         34.92798        36.82366        -2.29729
O         36.48598        29.68984        -0.58129
H         36.77779        28.86651        -1.02626
O         25.42575        13.76771         2.04109
H         24.46123        13.75151         2.24562
O         28.25103        13.56038         2.09687
H         27.37587        13.66805         2.53954
O         21.42471        17.24723         1.83567
H         20.49636        16.94714         1.71696
O         23.45460        24.58014         3.53953
H         22.62034        24.28654         3.97480
O         16.91933        29.41548         3.75285
H         16.11342        29.92263         4.04768
O         16.76950        26.50833         3.48599
H         16.82173        27.42007         3.87152
O         18.36983        44.03113        -2.00045
H         17.63346        44.49951        -2.44936
O         18.24942        19.99390         1.66365
H         17.29253        19.89156         1.91550
O         16.60567        38.13461        -1.08079
H         16.22964        37.25942        -1.32483
O         26.04621        24.70584         3.06135
H         25.30877        24.31977         3.59392
O         24.05683        24.89261        -0.06247
H         24.77248        25.27121        -0.61771
O         15.62369        20.29771         1.62277
H         15.01167        19.53210         1.79192
O         22.73434        17.84465        -1.53678
H         22.46652        17.43693        -2.39405
O         18.36416        41.22864        -1.37647
H         18.40421        42.07059        -1.89472
O         19.81407        21.64061        -1.22474
H         20.40190        22.44689        -1.18605
O         14.53393        17.84898         1.31817
H         15.21725        17.15612         1.45646
O         18.37028        24.56451        -0.25344
H         18.48628        25.48946        -0.55861
O         18.30003        40.84597         2.25760
H         18.37608        40.08453         2.87050
O         24.89661        29.19186         3.39924
H         24.49395        29.92639         3.92226
O         24.04328        33.33677        -0.57144
H         24.39602        34.06307        -1.14382
O         31.58755        29.55481         2.66394
H         32.37467        29.99115         3.05582
O         25.77133        53.36502         0.73264
H         25.79894        52.49367         1.18305
O         31.09454        18.43100         2.78799
H         30.36626        18.71481         3.38197
O         40.15170        31.11462         2.35677
H         39.48484        31.00109         3.07230
O         13.44334        28.61693         3.37317
H         12.71604        28.04520         3.71921
O         20.98899        11.30747        -5.36108
H         21.92581        11.60477        -5.35232
O         14.61691        21.54618        -1.72433
H         15.51746        21.90139        -1.92060
O         31.33577        18.58022        -0.86388
H         32.02039        18.28005        -1.49777
O         34.27100        37.80311         1.43177
H         35.10892        38.13158         1.82215
O         15.36629        22.80735         2.64050
H         16.19263        23.01065         3.14190
O         31.51042        38.21607        -2.12608
H         31.58683        37.30383        -2.49377
O         25.42392        18.71215         3.01783
H         26.30659        18.99695         3.36588
O         10.34644        30.03643        -0.81115
H         10.74464        29.21815        -1.17845
O         21.73187        10.55501        -1.94224
H         22.32815         9.90669        -1.47317
O         23.03598        46.73257         1.77362
H         22.72786        45.99423         2.35667
O         14.41216        35.32841        -0.81842
H         14.71971        34.45018        -1.15606
O         17.16098        21.75996        -1.37921
H         18.10699        22.02288        -1.53517
O         19.54918        58.94789        -3.20559
H         19.70485        58.47648        -4.04914
O         18.80462        37.06236        -1.00827
H         18.38639        37.76523        -1.56158
O         36.61707        22.43973         0.36234
H         36.30917        22.61381        -0.55044
O         18.14804        22.86872         2.98411
H         18.20857        21.89753         3.14061
O         23.04483        20.01078         3.03327
H         23.71825        19.33095         3.29631
O         20.62537        23.97481         3.38191
H         19.72402        23.57530         3.51169
O         26.85531        48.41413         1.61936
H         27.77281        48.49215         1.97683
O         24.16113        43.86990        -1.42568
H         24.92318        43.46475        -1.89194
O         11.75440        26.72524         3.11336
H         11.06892        26.05223         3.32063
O          7.81600        36.02539         2.75813
H          7.77289        35.07519         3.00105
O         33.01705        27.29573        -0.82856
H         33.76768        27.81314        -1.18938
H          5.28845        31.46461        -0.97974
H          5.25455        33.89630        -0.64143
H          7.58305        27.10295        -0.37163
H          6.46016        29.26670        -0.72413
H          6.28211        35.97255         0.22528
H          7.44033        38.12179         0.85807
H         10.27686        22.96067        -1.30242
H          8.79610        25.25328        -0.87692
H          8.70986        40.18387         0.70473
H          9.96259        42.27851         0.56331
H         12.37446        18.47004        -0.45063
H         11.13799        20.65566        -0.65398
H         11.20874        44.38599         0.31474
H         12.44790        46.47162        -0.11970
H         14.95851        14.39735        -1.81403
H         13.67330        16.38309        -1.08603
H         14.13062        48.07437        -1.81253
H         14.88447        50.68237        -0.86378
H         17.20594        10.49249        -3.40704
H         16.12174        12.43368        -2.54147
H         16.11020        52.82460        -1.06898
H         17.34530        54.95587        -1.44362
H         19.84689         6.13931        -4.55129
H         18.37076         8.35567        -4.07170
H         18.56522        57.02451        -1.95456
H         20.46716        59.30558        -1.40673
H         23.25098         3.08797        -4.96057
H         21.14373         4.36964        -5.07414
H         23.10255        61.86358        -4.72486
H         20.99440        60.89902        -3.79301
H         25.35468         4.17526        -4.18187
H         26.55342         6.02729        -3.38797
H         26.54657        58.80110        -3.45659
H         25.27648        60.69799        -4.37863
H         27.87478         7.93578        -2.49666
H         29.19816        10.04127        -1.56408
H         29.09002        54.88683        -2.01962
H         27.81149        56.85946        -2.67487
H         30.35780        12.08701        -0.88600
H         31.48297        14.12343        -0.31919
H         31.62502        50.67669        -1.56588
H         30.36997        52.82377        -1.68969
H         32.67888        16.14393         0.04973
H         34.00780        18.25162         0.61424
H         34.07828        46.43954        -0.92273
H         32.81719        48.49381        -1.51493
H         35.27035        20.36406         1.09417
H         36.04120        22.76315         2.30454
H         36.56139        42.12732        -0.44670
H         35.34786        44.25016        -0.61989
H         37.73166        24.65891         1.16589
H         38.94858        26.81322         1.09953
H         39.03167        37.87761        -0.00157
H         37.75783        40.03378        -0.01498
H         40.17064        28.86871         1.02522
H         41.15560        30.95072        -0.33560
H         41.01670        33.34433        -0.88284
H         40.14750        35.57772        -0.36912
