         334
 CSIRO Nanostructure Databank - Neutral Graphene Oxide Data Set
C         31.52152        56.75517        -2.62273
C         31.92296        57.96978        -3.27979
C         31.26319        58.46938        -4.42217
C         32.74113        60.40340        -4.48079
C         31.67953        59.66593        -5.01034
C         32.88565        52.86845        -0.20569
C         32.92492        54.23758        -0.27899
C         31.74106        55.03641        -0.77710
C         33.33906        56.98084        -1.01114
C         32.20170        56.26793        -1.52924
C         33.69372        58.22627        -1.59453
C         33.00987        58.71706        -2.74076
C         34.50248        60.68633        -2.73827
C         33.42067        59.95078        -3.33020
C         35.28336        48.58833         0.46982
C         35.27243        49.98976         0.47838
C         34.05111        50.73330         0.26682
C         35.36942        52.84499         0.12852
C         34.05879        52.10007         0.13570
C         35.24644        54.29038         0.52087
C         34.11235        54.96542         0.15258
C         35.22077        57.17890         0.58646
C         34.19827        56.41541        -0.02767
C         35.30163        58.54560         0.22395
C         34.70370        59.00649        -0.97851
C         36.20290        61.01112        -0.94090
C         35.11143        60.26400        -1.56906
C         37.81276        44.35027         0.31835
C         37.79217        45.74336         0.42847
C         36.54556        46.46308         0.47609
C         37.76912        48.64287         0.29509
C         36.49924        47.84268         0.48796
C         37.71173        49.92889         1.11845
C         36.48050        50.72233         0.75451
C         37.66511        52.83297         1.19894
C         36.50321        52.11005         0.78032
C         37.68075        54.26289         1.22563
C         36.51630        55.08185         0.70350
C         37.61322        57.13470         1.63185
C         36.26393        56.41497         1.46464
C         37.73157        58.46017         2.12414
C         35.69495        59.73796         1.02734
C         37.54759        61.48708         1.21057
C         36.56533        60.72925         0.33941
C         40.30341        40.09387        -0.15699
C         40.26974        41.50869        -0.02650
C         39.05880        42.21633         0.09114
C         40.27008        44.34026         0.36396
C         39.03348        43.62391         0.25021
C         40.26498        45.75592         0.53969
C         39.03649        46.47003         0.51953
C         40.25482        48.59753         0.71842
C         39.05586        47.89230         0.55429
C         40.24452        50.10676         0.50495
C         38.97547        50.74728         1.04147
C         40.11509        52.79453         1.81444
C         38.90152        52.08884         1.35123
C         40.09869        54.29353         1.83266
C         38.85378        54.98664         1.44181
C         40.07620        57.13181         1.56780
C         38.83712        56.43098         1.45561
C         40.08825        58.56228         1.57891
C         38.86801        59.27096         1.78078
C         40.01685        61.40205         1.39608
C         38.84681        60.71730         1.51276
C         42.78208        35.86436        -0.67084
C         42.73290        37.24971        -0.53886
C         41.52578        37.97565        -0.42476
C         42.76830        40.12840        -0.37246
C         41.50944        39.38345        -0.28431
C         42.74260        41.57080        -0.19087
C         41.51854        42.23754         0.01333
C         42.73435        44.34404         0.44269
C         41.50702        43.64292         0.26788
C         42.72713        45.74565         0.72191
C         41.49371        46.46496         0.71562
C         42.71440        48.56609         1.14297
C         41.48573        47.88557         0.84893
C         42.72631        50.00581         1.31107
C         41.55629        50.88420         0.85991
C         42.66007        52.84595         1.86907
C         41.39873        51.98618         1.93567
C         42.63132        54.28963         1.78322
C         41.37500        55.02727         1.77614
C         42.55915        57.19318         1.67090
C         41.31822        56.41032         1.66315
C         42.53798        58.62836         1.33633
C         41.32279        59.29108         1.46273
C         42.54313        61.44248         1.11197
C         41.33780        60.77302         1.72659
C         45.27638        33.06191        -1.03652
C         44.06276        33.72998        -0.84332
C         45.23622        35.85263        -1.01051
C         44.02281        35.14187        -0.81584
C         45.18450        37.31925        -1.07751
C         44.03920        37.99453        -0.36145
C         45.19317        40.27243        -0.98917
C         43.95715        39.47916        -0.60262
C         45.22125        41.62902        -0.32862
C         43.97416        42.27812        -0.06184
C         45.20790        44.32696         0.55498
C         43.97130        43.64733         0.32373
C         45.19979        45.70092         0.94448
C         43.94761        46.42196         1.00799
C         45.11955        48.46339         1.81254
C         43.89712        47.81197         1.30350
C         45.11543        49.95932         1.97057
C         43.84988        50.68245         1.73881
C         45.12051        52.83371         1.65176
C         43.87598        52.14566         1.79970
C         45.16209        54.32525         1.75046
C         43.82478        54.97895         1.56987
C         44.96277        57.14514         0.86624
C         43.84969        56.44668         1.56837
C         44.97747        58.62389         0.84554
C         43.76636        59.32267         1.06064
C         44.90511        61.48403         0.29619
C         43.69958        60.76417         0.86931
C         46.46674        33.76485        -1.20867
C         47.69967        35.92887        -1.27313
C         46.47023        35.18413        -1.20426
C         47.74175        37.31760        -1.17618
C         46.47697        38.07909        -1.18857
C         47.67739        40.15414        -0.65183
C         46.49228        39.51000        -0.83171
C         47.72187        41.66593        -0.57593
C         46.42091        42.28489        -0.11308
C         47.68093        44.29762         0.64305
C         46.44018        43.63005         0.38430
C         47.66178        45.64873         1.05680
C         46.44453        46.34038         1.18976
C         47.72520        48.54371         1.70173
C         46.42932        47.72836         1.71226
C         47.53191        49.94869         1.10232
C         46.39292        50.71605         1.73722
C         47.50988        52.82612         1.00916
C         46.33465        52.16294         1.44581
C         47.47527        54.25623         0.77713
C         46.30541        54.95541         0.99413
C         47.46880        57.13285         0.42484
C         46.22466        56.37404         0.60633
C         47.43232        58.54716         0.36569
C         46.19559        59.28169         0.51188
C         47.39847        61.38326         0.19128
C         46.20794        60.71025         0.37078
C         48.94699        38.05289        -1.00338
C         50.16118        40.16134        -0.62647
C         48.94662        39.43309        -0.74374
C         50.19305        41.51700        -0.24820
C         48.90651        42.11997         0.27943
C         50.15129        44.30751         0.47585
C         48.94078        43.61766         0.45395
C         50.19061        45.70608         0.81415
C         48.96363        46.34283         1.43055
C         50.15038        48.56882         1.03467
C         48.85264        47.80106         0.95387
C         50.14669        50.05481         1.28048
C         48.81605        50.73492         1.04533
C         49.88559        52.77636         0.13085
C         48.73518        52.09203         0.82601
C         49.89948        54.27832         0.25395
C         48.69531        54.97307         0.40742
C         49.91111        57.11619         0.12719
C         48.68540        56.40842         0.32669
C         49.89062        58.55615         0.06457
C         48.66727        59.25675         0.18023
C         49.85489        61.39977        -0.03931
C         48.65636        60.69721         0.11676
C         51.36622        42.27306        -0.28338
C         52.55606        44.41403        -0.05602
C         51.38828        43.65823         0.05866
C         52.59668        45.80413         0.29046
C         51.35523        46.44147         0.71043
C         52.58397        48.62920         0.79924
C         51.35383        47.89633         0.90810
C         52.56207        50.02245         0.52906
C         51.30822        50.75756         0.62050
C         52.39253        52.84572        -0.07447
C         51.22287        52.09908         0.32592
C         52.34146        54.22305        -0.19188
C         51.11642        54.97856         0.02110
C         52.43376        57.12525        -0.02512
C         51.11860        56.39128        -0.00964
C         52.34337        58.60714        -0.27767
C         51.11817        59.28424        -0.12875
C         52.31781        61.43119        -0.25853
C         51.10117        60.72484        -0.15895
C         53.78782        46.50814         0.31603
C         55.05863        48.64927         0.35671
C         53.88873        47.88883         0.90621
C         54.99891        50.00042         0.00948
C         53.71930        50.67674         0.05276
C         54.89159        52.80070        -0.73405
C         53.62283        52.07310        -0.38786
C         54.86168        54.28295        -0.44779
C         53.52743        54.94398        -0.72467
C         54.78691        57.20076        -1.14986
C         53.49972        56.42812        -0.85242
C         54.79519        58.63177        -0.65095
C         53.55314        59.32014        -0.44889
C         54.79214        61.45746        -0.43614
C         53.55208        60.75867        -0.38675
C         56.19653        50.73420        -0.27511
C         57.36278        52.87819        -0.71399
C         56.20639        52.12036        -0.56347
C         57.30452        54.25686        -1.33174
C         56.07135        55.04279        -0.92085
C         57.32353        57.14396        -0.85235
C         56.05129        56.39665        -0.88572
C         57.28345        58.62687        -0.78605
C         55.98083        59.34273        -0.71870
C         57.27666        61.45311        -0.54401
C         56.00665        60.77338        -0.56418
C         58.57975        55.06206        -1.25606
C         59.78981        57.22801        -1.15405
C         58.58791        56.42648        -1.15761
C         59.77410        58.61615        -1.10238
C         58.48030        59.38634        -1.30159
C         59.73773        61.46580        -0.66610
C         58.48831        60.80945        -0.77826
C         60.97099        59.37552        -0.99376
C         60.93985        60.75954        -0.80842
O         45.20050        56.58135        -0.47262
O         54.07482        52.31078        -1.81639
O         35.09389        60.03433         2.05778
O         53.15503        55.59197        -1.99842
O         39.88305        53.50248         3.08829
O         45.59240        37.85218        -2.37633
O         45.70908        47.80034         2.99031
O         43.43986        57.00298         2.86260
O         57.49852        57.87360         0.45088
O         45.96351        50.39174         3.09528
O         48.67431        41.55891         1.60467
H         49.37367        41.89465         2.20368
O         58.28947        59.48879        -2.74595
H         59.03761        60.00725        -3.10929
O         36.91653        55.47347        -0.64859
H         36.88107        54.65226        -1.19526
O         41.34598        51.32454         3.21815
H         41.00123        51.98516         3.86096
O         37.84342        62.75884         0.64806
H         38.22265        62.62685        -0.24425
O         47.08232        49.80602        -0.29547
H         47.23289        50.66801        -0.74323
O         57.10226        53.99685        -2.77561
H         56.30741        53.42728        -2.86781
O         37.74782        49.02557        -1.12248
H         37.69953        48.20131        -1.65133
O         54.95259        54.32839         1.01937
H         54.89097        55.26625         1.30672
O         48.53797        47.65990        -0.45185
H         48.17296        48.51566        -0.78691
O         45.49823        54.62116         3.17948
H         44.76067        54.27760         3.72918
O         40.11208        50.24495        -0.95004
H         39.22544        49.87939        -1.21676
O         30.86287        54.23234        -1.56214
H         31.34830        53.92457        -2.35415
O         44.38946        37.86353         1.06317
H         43.63702        38.21249         1.58667
O         54.84779        57.38309        -2.59773
H         54.41783        56.59187        -3.00152
O         41.49927        60.90430         3.19399
H         42.27594        60.36037         3.44749
O         49.14840        46.24458         2.85868
H         48.62332        46.95855         3.29376
O         54.15649        47.71242         2.36052
H         54.00975        48.58041         2.79402
O         42.02351        51.58776        -0.31061
H         41.60673        51.16338        -1.09763
O         52.98853        56.99167         1.34057
H         52.39325        57.47428         1.95335
O         35.69452        56.11951         2.74557
H         35.62726        56.96180         3.24477
O         45.08096        40.53535        -2.43282
H         45.11647        39.64572        -2.86542
O         49.57957        52.52819        -1.29979
H         50.26663        52.98954        -1.82882
O         48.13207        48.72811         3.07864
H         47.31193        49.01824         3.56051
O         50.40888        50.20877         2.72571
H         49.68773        49.71347         3.19131
O         36.85085        58.85768         3.06920
H         36.99489        59.79214         3.32196
O         35.77586        52.93085        -1.30889
H         34.97847        53.21195        -1.80854
O         47.94813        42.14464        -1.92732
H         47.17789        41.86352        -2.46905
O         37.58957        49.49556         2.50917
H         37.60817        50.29460         3.07703
O         45.04706        62.78318         0.88002
H         45.16460        62.67473         1.84571
H         30.64574        56.20746        -3.00268
H         30.41752        57.91164        -4.84957
H         33.04670        61.34629        -4.95673
H         31.15761        60.03786        -5.90338
H         31.95130        52.33933        -0.44893
H         31.14588        55.38373         0.11419
H         34.82850        61.62258        -3.21650
H         34.32903        48.04431         0.39360
H         33.10512        50.17770         0.17260
H         36.67611        61.82937        -1.50792
H         36.86119        43.80106         0.25672
H         35.60954        45.88492         0.51823
H         37.01963        61.67863         2.18678
H         39.35388        39.53727        -0.14925
H         38.10702        41.66567         0.04806
H         39.99214        62.47010         1.13066
H         41.84234        35.29051        -0.67271
H         40.56886        37.43296        -0.46763
H         42.52259        62.53461         0.97186
H         45.29026        31.96280        -1.05127
H         43.13258        33.15727        -0.71895
H         44.69903        61.65867        -0.79901
H         47.41277        33.22215        -1.34745
H         48.64557        35.36618        -1.29433
H         47.38489        62.47884         0.09164
H         49.90658        37.51487        -1.04175
H         51.10718        39.65054        -0.86637
H         49.83710        62.49928        -0.07348
H         52.29682        41.80474        -0.64076
H         53.48766        43.92119        -0.37345
H         52.30400        62.53083        -0.22216
H         54.71269        46.02220        -0.03139
H         56.03748        48.14599         0.37341
H         54.78916        62.55549        -0.36340
H         57.15656        50.20099        -0.20774
H         58.34318        52.38674        -0.61455
H         57.28374        62.52698        -0.29755
H         59.52519        54.52349        -1.42866
H         60.76120        56.70747        -1.15461
H         59.76342        62.53439        -0.40580
H         61.93798        58.85063        -0.98993
H         61.88971        61.30292        -0.70265
