         349
 CSIRO Nanostructure Databank - Neutral Graphene Oxide Data Set
C          1.54787         1.90030        -1.34360
C          1.81466         2.89908        -2.28625
C          2.52019         1.56296        -0.40980
C          3.03363         3.57523        -2.21669
C          2.01579         6.55184        -3.05584
C          1.82635         7.84389        -2.57829
C          3.12341         5.82377        -2.61855
C          2.78981         8.44897        -1.75311
C          1.45266        10.63949        -1.78721
C          1.43510        11.98759        -1.64326
C          2.56448         9.83136        -1.26881
C          2.58048        12.74451        -1.19295
C          1.36576        14.91804        -1.52679
C          1.37672        16.29477        -1.63889
C          2.55643        14.18077        -1.26902
C          2.58488        17.02804        -1.51579
C          2.62812        18.44628        -1.66520
C          3.78915         2.18864        -0.39043
C          4.03751         3.29346        -1.27051
C          4.76562         1.63612         0.53283
C          5.22209         4.18074        -1.16275
C          4.09074         6.36527        -1.73488
C          3.97258         7.75033        -1.39740
C          5.21506         5.57789        -1.26000
C          5.11037         8.46060        -0.80834
C          3.77866        10.59669        -0.73829
C          3.77511        12.06881        -0.85211
C          5.06020         9.87700        -0.65052
C          4.99033        12.77919        -0.64794
C          3.77478        14.89908        -1.09072
C          3.79059        16.31970        -1.23429
C          4.97837        14.20907        -0.75560
C          5.02102        17.02812        -1.14175
C          3.81262        19.13743        -1.54564
C          5.04151        18.45955        -1.28095
C          6.10066         1.63734         0.22500
C          6.43750         3.52511        -0.78039
C          7.25860         1.22739         0.96259
C          7.52787         4.11063        -0.11301
C          6.51190         6.34516        -1.05347
C          6.31180         7.76992        -0.54157
C          7.63471         5.59576        -0.29085
C          7.44291         8.49929        -0.04278
C          6.25011        10.61725        -0.42550
C          6.23016        12.07924        -0.41627
C          7.43383         9.92521        -0.12625
C          7.41708        12.79205        -0.15865
C          6.17972        14.95069        -0.57445
C          6.21354        16.31889        -0.83565
C          7.32966        14.27123         0.12525
C          7.53285        17.02088        -1.01553
C          6.24398        19.17323        -1.08147
C          7.46527        18.51901        -0.82701
C          8.43428         1.95780         0.90754
C          8.52617         3.36337         0.57036
C          9.64279         1.22067         1.45908
C          9.63176         4.07753         1.25935
C          8.60300         6.36647         0.56034
C          8.51864         7.83857         0.62729
C          9.60099         5.60203         1.38022
C          9.56847         8.61466         1.29362
C          8.75729        10.63830        -0.01324
C          8.64937        12.14186         0.10396
C          9.56178        10.13521         1.17881
C          9.80741        12.84742         0.47397
C          8.64521        14.99617         0.01529
C          8.67968        16.36116        -0.29442
C          9.83442        14.28946         0.38655
C          9.83941        17.12346        -0.05711
C          8.65216        19.21366        -0.59364
C          9.86682        18.53571        -0.27928
C         10.98542         1.88599         1.21655
C         10.94994         3.34140         1.58218
C         12.03566         1.09653         0.85593
C         12.16443         4.20567         1.63560
C         10.86213         6.36690         1.67318
C         10.87146         7.87544         1.70102
C         12.13195         5.67180         1.24063
C         12.15575         8.58264         1.76325
C         10.94493        10.78100         1.19833
C         11.00888        12.14209         0.91824
C         12.09756        10.07404         1.79972
C         12.25563        12.88381         1.02159
C         11.03645        14.99320         0.59517
C         10.99951        16.46138         0.54636
C         12.27750        14.30524         0.81972
C         12.29397        17.24504         0.63895
C         11.10061        19.23877        -0.23052
C         12.31485        18.59906         0.04096
C         13.42466         1.54353         0.96304
C         13.41442         3.64506         1.69154
C         14.47933         1.38418         0.13584
C         14.61033         4.33765         1.33751
C         13.38875         6.43911         1.60921
C         13.36176         7.85787         1.80875
C         14.60531         5.73330         1.48803
C         14.66708         8.55094         2.06318
C         13.41089        10.85168         1.86547
C         13.46391        12.21931         1.31410
C         14.69938        10.10844         2.02965
C         14.71705        12.87751         1.16671
C         13.51262        14.99605         0.82757
C         13.60679        16.51689         0.88557
C         14.73439        14.27871         0.88571
C         14.70620        17.00651        -0.05853
C         13.56227        19.22616        -0.19496
C         14.77269        18.52079        -0.13553
C         15.67854         2.32893         0.02330
C         15.84923         3.51210         1.06762
C         17.00933         1.59741        -0.01637
C         17.01305         4.40741         0.59874
C         15.91457         6.34712         1.89022
C         15.93237         7.84442         1.87985
C         17.08146         5.87239         1.02292
C         17.18671         8.49692         1.85995
C         15.93648        10.76068         1.60857
C         15.95662        12.13501         1.28500
C         17.16623         9.95406         1.52842
C         17.20170        12.84166         1.12159
C         15.99928        14.97009         0.72391
C         16.01542        16.35877         0.32422
C         17.20000        14.24455         0.89476
C         17.19036        17.07322         0.17939
C         16.00435        19.17620        -0.27469
C         17.23626        18.48850        -0.14716
C         18.22997         2.22958         0.11267
C         18.28736         3.71100         0.27201
C         19.47079         1.55046        -0.04834
C         19.58110         4.41112         0.46657
C         18.42108         6.27760         1.68591
C         18.41484         7.78894         1.79106
C         19.62994         5.71441         0.95747
C         19.72339         8.44759         1.99642
C         18.47028        10.67333         1.37108
C         18.46728        12.15534         1.21701
C         19.70782         9.98940         1.88634
C         19.67210        12.79777         0.95533
C         18.48925        14.97230         0.88524
C         18.46408        16.42669         0.51481
C         19.76562        14.21916         0.74521
C         19.70677        17.07246         0.01231
C         18.46777        19.18941        -0.19183
C         19.72395        18.55364        -0.06078
C         20.70795         2.21822        -0.03368
C         20.78825         3.65940         0.23253
C         21.89310         1.50525        -0.31013
C         22.01696         4.28522         0.36445
C         20.87592         6.40449         1.10162
C         20.98584         7.66152         1.71585
C         22.09236         5.74532         0.57928
C         22.30509         8.18051         2.00077
C         20.94320        10.76853         1.71596
C         20.92559        12.01817         0.92578
C         22.11280        10.41026         2.30752
C         22.22859        12.69992         0.64050
C         20.96023        14.86996         0.51823
C         20.97244        16.30684         0.14520
C         22.27732        14.16394         0.22806
C         22.18280        17.09958         0.49385
C         20.96381        19.20590        -0.11745
C         22.20123        18.53410         0.12451
C         23.16873         2.11051        -0.22131
C         23.24033         3.47752         0.33852
C         24.34303         1.44442        -0.54722
C         24.61140         4.19544         0.36095
C         23.44192         6.45046         0.68838
C         23.52540         7.72074         1.45820
C         24.69547         5.66686         0.52740
C         24.84240         8.38595         1.37745
C         23.34688        11.11029         2.08671
C         23.47083        12.14422         1.21606
C         25.10534         9.75503         1.68249
C         24.76015        12.72023         0.67750
C         23.53255        14.88968         0.72101
C         23.47268        16.37673         0.81776
C         24.71734        14.23046         0.85724
C         24.71238        17.15969         0.68286
C         23.42860        19.19277         0.14791
C         24.65996        18.51500         0.40696
C         25.61399         2.12269        -0.62887
C         25.69704         3.51064        -0.30463
C         26.71126         1.45160        -1.17081
C         26.83400         4.37016        -0.76250
C         25.91438         6.28881         0.52277
C         25.96362         7.72561         0.74937
C         27.17057         5.42780         0.35877
C         27.14071         8.42726         0.40331
C         26.08933        10.52025         1.04482
C         26.04234        12.02178         1.15083
C         27.18501         9.84862         0.46061
C         27.31364        12.76919         0.89297
C         26.01020        14.95352         1.01130
C         26.00133        16.46386         0.87843
C         27.26961        14.24253         0.66222
C         27.22667        17.13126         0.39939
C         25.93011        19.33772         0.44019
C         27.18805        18.53586         0.17892
C         28.06212         2.07327        -1.30408
C         28.02782         3.58712        -1.21998
C         28.75572         1.66644        -2.59533
C         29.12051         4.29559        -1.60455
C         28.56143         6.17241         0.03403
C         28.49282         7.75077         0.22579
C         29.23441         5.71311        -1.27193
C         29.27373         8.47603        -0.89489
C         28.36755        10.61152         0.08144
C         28.47010        12.01438         0.34450
C         29.42960         9.94897        -0.57309
C         29.59318        12.73494        -0.07770
C         28.40841        14.93797         0.34562
C         28.40437        16.38903         0.18589
C         29.73980        14.19685         0.31609
C         29.59262        17.07824        -0.21384
C         28.34103        19.20029        -0.20176
C         29.55911        18.49398        -0.39191
C         29.81422         2.36635        -3.01518
C         30.29497         3.56326        -2.22281
C         31.15536         4.48828        -3.04125
C         30.28072         6.42297        -1.81450
C         30.61917         7.76113        -1.18740
C         31.13528         5.82001        -2.82701
C         31.53903         8.63661        -1.99811
C         30.53567        10.66596        -1.05028
C         30.64877        12.06750        -0.76953
C         31.52119         9.97765        -1.87338
C         31.78364        12.81084        -1.18565
C         30.81673        14.92900        -0.45126
C         30.81025        16.36959        -0.49035
C         31.83520        14.19863        -1.06308
C         31.95484        17.10194        -0.85891
C         30.73912        19.18952        -0.76766
C         31.92086        18.49768        -0.97818
O          2.77079        10.02498         0.16860
O         12.55272        10.72373         3.04128
O          9.87909         8.31049         2.68989
O         18.56835        16.02093         1.92423
O         14.73842         9.37816         3.28713
O         17.45000         4.32690        -0.80391
O         19.63604         9.33194         3.17762
O          3.29994         4.55765        -3.19046
O         26.12688        15.80834         2.19362
O          9.91319         3.53283         2.59222
O         22.57265        16.85535         1.88715
O         29.50612         5.68954         0.96735
O         26.81062        12.51141         2.27486
O         13.59341         2.33527         2.12075
O         22.66839         6.49929        -0.57069
O         21.58006        11.87660        -0.40796
O         17.85068        10.06710         0.19210
O         22.30015         9.20008         2.97936
O          8.93255         5.95290        -0.87817
O         11.43272        17.13937         1.80835
O         24.40909        10.44825         2.68439
O         24.04669         3.53184         1.54734
O         20.36164        16.49939        -1.18386
O          6.45821         2.15774        -1.04844
O          9.98591         5.92221         2.73875
O         26.35271         5.17064        -1.88513
H         26.33483         4.60428        -2.68454
O         16.95612         6.67222        -0.17387
H         17.35558         6.15755        -0.91469
O          8.88520        10.63456         2.35400
H          9.24949        10.13997         3.12419
O         31.33466         7.46851         0.03389
H         30.82733         6.74165         0.50212
O          9.62234        -0.11843         0.95658
H          9.47293        -0.08612        -0.01054
O         16.06782         5.90856         3.28495
H         15.36186         6.34672         3.80857
O         31.10923         3.03779        -1.11935
H         31.28773         3.79336        -0.51690
O         14.33655        16.53066        -1.38541
H         15.02434        16.82788        -2.01727
O          7.85471        16.83756        -2.44672
H          7.17567        17.32550        -2.96010
O         28.88383         1.57518        -0.20631
H         29.78845         1.96314        -0.33698
O         25.84884        20.44394        -0.46505
H         25.78167        20.09295        -1.37630
O          6.99526        14.37045         1.56073
H          6.30699        13.69882         1.75518
O         14.02819        16.85382         2.22535
H         13.22549        16.83389         2.79351
O         16.28134         2.90964         2.30721
H         16.23580         3.59262         3.01171
O          7.00611         6.54711        -2.41303
H          7.98994         6.61105        -2.34061
O         27.33455         4.74661         1.59293
H         28.31679         4.79003         1.78121
O         12.03441         5.72569        -0.23123
H         12.86551         5.35643        -0.60068
O         15.40307         2.89945        -1.28219
H         16.21229         3.37525        -1.59044
O         29.11479         8.04942         1.48693
H         29.45374         7.17077         1.82278
O         28.45594         8.39791        -2.09027
H         28.94034         8.83662        -2.82034
O         18.59527         5.70951         3.00544
H         17.86481         6.03082         3.58484
O         24.76507        12.47634        -0.75923
H         23.98075        12.93976        -1.14679
O         22.44278        14.17468        -1.22638
H         21.80429        13.50797        -1.57591
O          9.52993        10.31691        -1.20590
H          9.01664        10.60586        -1.98907
O         30.20827        14.19877         1.70762
H         29.52551        13.74915         2.25169
H          0.58777         1.36710        -1.35865
H          1.08584         3.15810        -3.06446
H          2.33029         0.74620         0.30055
H          1.30213         6.09597        -3.75320
H          0.92565         8.39220        -2.88007
H          0.59813        10.14725        -2.27066
H          0.55438        12.53453        -2.00499
H          0.40598        14.39383        -1.62492
H          0.43953        16.83553        -1.83498
H          1.69306        18.98618        -1.87400
H          4.40850         1.12645         1.43874
H          3.82542        20.23215        -1.64964
H          7.25695         0.27762         1.51966
H          6.21714        20.27375        -1.08507
H          9.53751         1.13895         2.57605
H          8.65157        20.31405        -0.62010
H         11.81314         0.05192         0.57726
H         11.11543        20.29067        -0.55336
H         14.33495         0.77204        -0.76839
H         13.57490        20.29803        -0.44668
H         17.00135         0.51116        -0.19886
H         16.01446        20.26895        -0.40783
H         19.45960         0.46569        -0.23270
H         18.43767        20.28077        -0.33297
H         21.82572         0.44387        -0.59071
H         20.98959        20.29346        -0.28697
H         24.29409         0.39981        -0.88715
H         23.47356        20.27070        -0.06704
H         26.59699         0.39284        -1.45072
H         26.01512        19.78469         1.46996
H         28.41189         0.76868        -3.13189
H         28.31631        20.28958        -0.34970
H         30.37048         2.07178        -3.91859
H         31.85810         4.04743        -3.76398
H         31.81646         6.46468        -3.40218
H         32.33140         8.17158        -2.60259
H         32.26390        10.57465        -2.42173
H         32.62534        12.30208        -1.67257
H         32.68415        14.72265        -1.52413
H         32.90792        16.58486        -1.03254
H         30.70326        20.28203        -0.88346
H         32.83631        19.03959        -1.25271
