         344
 CSIRO Nanostructure Databank - Neutral Graphene Oxide Data Set
C          1.52495         2.16082         1.12786
C          1.31973         3.50056         0.85280
C          2.54967         1.42955         0.52488
C          2.27789         4.29262        -0.00812
C          1.15699         6.55965         0.41721
C          1.14337         7.82533        -0.01905
C          2.41080         5.73019         0.54185
C          2.34234         8.47673        -0.67139
C          1.21702        10.73158        -0.74648
C          1.23846        12.12977        -0.71236
C          2.38432         9.98889        -0.55507
C          2.43985        12.82727        -0.54997
C          1.31004        15.06904        -1.05164
C          1.40796        16.37474        -1.39431
C          2.46488        14.33742        -0.41178
C          2.66826        17.08108        -1.33096
C          2.74883        18.46799        -1.55401
C          3.54864         2.10041        -0.36511
C          3.61539         3.58125        -0.06815
C          4.84558         1.38783        -0.15427
C          4.81685         4.23910         0.06759
C          3.63723         6.44477         0.02564
C          3.63145         7.79692        -0.26586
C          4.87327         5.69590         0.08741
C          4.85855         8.55080        -0.23155
C          3.60908        10.67311        -0.35595
C          3.64036        12.09877        -0.38109
C          4.84341         9.93188        -0.17567
C          4.92054        12.79826        -0.32736
C          3.79832        14.94850        -0.78814
C          3.86335        16.32763        -1.08927
C          4.98602        14.20137        -0.62832
C          5.13601        16.98154        -1.17622
C          3.97019        19.13193        -1.50415
C          5.18367        18.42302        -1.31459
C          6.05253         2.05198        -0.00527
C          6.07691         3.51495        -0.00707
C          7.28197         1.34239         0.14015
C          7.28154         4.18939        -0.04967
C          6.09296         6.34673         0.01059
C          6.17908         7.82282        -0.24596
C          7.33107         5.62388         0.03878
C          7.27458         8.47323         0.61510
C          6.02705        10.67857         0.41690
C          6.10008        12.11879        -0.01789
C          7.35270         9.95405         0.31323
C          7.35379        12.78331        -0.03382
C          6.26864        14.83439        -0.78353
C          6.31632        16.22881        -1.07340
C          7.45876        14.09709        -0.49482
C          7.61186        16.93054        -1.19447
C          6.41252        19.10220        -1.17788
C          7.62812        18.40178        -1.02606
C          8.52579         1.98999         0.02930
C          8.53828         3.44227        -0.40344
C          9.74070         1.30845         0.11021
C          9.80447         4.16264        -0.01903
C          8.55551         6.30514         0.20172
C          8.58838         7.73886         0.40512
C          9.80071         5.57329         0.22541
C          9.75949         8.40237         0.64632
C          8.52618        10.60360         0.46477
C          8.53027        12.10074         0.62327
C          9.70715         9.85210         1.05747
C          9.87528        12.71737         0.34730
C          8.83610        14.63390        -0.86094
C          8.89539        16.15557        -1.00082
C          9.96758        14.05221        -0.03663
C         10.07305        16.90059        -0.51569
C          8.85027        19.04141        -0.81300
C         10.04810        18.32121        -0.52515
C         10.99881         1.98610        -0.06506
C         10.99687         3.45297        -0.02814
C         12.18711         1.30685        -0.19584
C         12.24393         4.15390         0.07551
C         11.01080         6.23821         0.49735
C         10.99704         7.63963         1.04305
C         12.24460         5.55888         0.35611
C         12.28813         8.40152         0.87063
C         11.03595        10.56821         0.91923
C         11.04920        11.97542         0.70917
C         12.26840         9.84804         0.98399
C         12.27955        12.68536         0.80551
C         11.18284        14.77837         0.13816
C         11.21876        16.20922        -0.04576
C         12.33663        14.10400         0.62839
C         12.38413        16.94090         0.33277
C         11.21385        19.03018        -0.11243
C         12.35171        18.36704         0.30784
C         13.44644         2.03369        -0.57465
C         13.45761         3.46775        -0.10148
C         14.72374         1.31993        -0.23194
C         14.67760         4.17557        -0.05197
C         13.47647         6.27824         0.40493
C         13.48470         7.69927         0.67664
C         14.69121         5.59828         0.13564
C         14.74505         8.39707         0.62789
C         13.49804        10.55523         1.13560
C         13.44404        11.97118         1.21578
C         14.80744         9.75591         1.29672
C         14.52728        12.78620         1.66226
C         13.55646        14.83097         0.85168
C         13.57528        16.24940         0.74196
C         14.72414        14.12294         1.30492
C         14.75748        16.97400         1.08799
C         13.50661        19.17312         0.85081
C         14.78933        18.39041         1.01371
C         15.91489         2.01186        -0.20044
C         15.91274         3.47708        -0.22317
C         17.18023         1.33629        -0.09382
C         17.10164         4.19828        -0.35482
C         15.91246         6.32737        -0.03321
C         15.88402         7.76130         0.14868
C         17.11935         5.62478        -0.31126
C         17.08036         8.53253        -0.28272
C         16.06699        10.51705         0.90655
C         16.30932        11.73300         1.46242
C         17.06334        10.05182        -0.13071
C         17.35589        12.65213         1.08235
C         16.03105        14.76510         1.38397
C         15.97939        16.24704         1.47685
C         17.26691        14.09708         1.27814
C         17.29348        17.03554         1.44893
C         15.98343        19.11119         1.07246
C         17.25008        18.47979         1.14244
C         18.38020         2.00768        -0.30228
C         18.33311         3.44498        -0.67753
C         19.63664         1.37398        -0.16471
C         19.60707         4.19415        -0.91724
C         18.38858         6.31841        -0.46973
C         18.36636         7.80256        -0.53935
C         19.57375         5.66396        -0.71963
C         19.65908         8.53863        -0.47965
C         18.44707        10.65184         0.13301
C         18.48560        12.01421         0.56304
C         19.63231         9.96349        -0.19793
C         19.79667        12.70490         0.76471
C         18.51909        14.85901         1.09866
C         18.53360        16.30286         1.16264
C         19.71144        14.20607         0.77355
C         19.70334        17.04422         0.94897
C         18.44701        19.17500         0.97902
C         19.70117        18.49574         0.95695
C         20.86476         2.04189        -0.34526
C         20.94506         3.45828        -0.90674
C         22.07433         1.37816        -0.15894
C         22.03588         4.25400        -0.17542
C         20.83963         6.41612        -0.89212
C         20.84370         7.87391        -0.68560
C         22.15519         5.68118        -0.71894
C         22.18127         8.57887        -0.84760
C         20.89304        10.65525        -0.22671
C         20.84905        12.12521        -0.13428
C         22.11402        10.01860        -0.40986
C         22.10737        12.89975        -0.30226
C         20.94865        14.92679         0.58677
C         20.95980        16.37476         0.75477
C         22.10930        14.29038         0.17441
C         22.14964        17.08974         0.70892
C         20.91202        19.19766         0.86487
C         22.16566        18.52530         0.77101
C         23.33724         2.05496        -0.29988
C         23.34785         3.51582        -0.25774
C         24.52123         1.35663        -0.35735
C         24.52068         4.20992        -0.10879
C         23.35981         6.45273        -0.30831
C         23.37747         7.81381        -0.28385
C         24.48502         5.65510         0.34803
C         24.46250         8.52231         0.52810
C         23.33676        10.74785        -0.25581
C         23.36496        12.14045        -0.29502
C         24.55937        10.08836         0.36224
C         24.60370        12.86431        -0.16867
C         23.34360        15.08052        -0.15183
C         23.44584        16.32046         0.72168
C         24.61987        14.26797        -0.09215
C         24.66584        17.12158         0.35928
C         23.39219        19.21522         0.68367
C         24.64147        18.54437         0.45683
C         25.81287         2.06092        -0.64308
C         25.78132         3.52724        -0.25865
C         27.03167         1.37244        -0.07382
C         26.96117         4.23206        -0.23865
C         25.80884         6.36294         0.17697
C         25.89040         7.85912         0.44714
C         26.96702         5.67933        -0.09024
C         26.88970         8.49060        -0.54343
C         25.83182        10.70211        -0.19667
C         25.84328        12.13797        -0.24528
C         27.00107         9.98987        -0.39582
C         27.04941        12.84321        -0.41981
C         25.83908        14.97894        -0.09068
C         25.84826        16.42063         0.05312
C         27.06339        14.28295        -0.33372
C         27.07780        17.12842        -0.07901
C         25.85461        19.24529         0.29024
C         27.07491        18.56072         0.05035
C         28.22248         2.04428        -0.02348
C         28.23491         3.48868        -0.38333
C         29.47463         1.41211         0.30860
C         29.53542         4.24971        -0.24738
C         28.23741         6.41444        -0.22310
C         28.22015         7.77725        -0.41020
C         29.50194         5.71412        -0.12902
C         29.52106         8.46365        -0.72575
C         28.25133        10.68037        -0.56176
C         28.27717        12.11350        -0.56795
C         29.48335         9.97781        -0.64253
C         29.50064        12.80905        -0.70466
C         28.26346        15.00559        -0.48886
C         28.28817        16.41927        -0.33545
C         29.49092        14.29335        -0.99130
C         29.52857        17.13711        -0.41130
C         28.30096        19.25117        -0.06926
C         29.51849        18.56232        -0.27393
C         30.65612         2.11063         0.39839
C         30.72736         3.52511         0.21648
C         31.87427         4.27312         0.51277
C         30.70231         6.39804         0.09750
C         30.67524         7.91942         0.13424
C         31.87345         5.66936         0.40938
C         31.95554         8.58279        -0.32903
C         30.70395        10.66192        -0.68914
C         30.72655        12.10028        -0.72896
C         31.94023         9.88010        -0.69399
C         31.94603        12.84486        -0.71624
C         30.78112        14.99962        -0.65686
C         30.77524        16.43931        -0.54722
C         31.95601        14.23707        -0.62748
C         31.96810        17.19196        -0.55605
C         30.75152        19.27463        -0.31911
C         31.94855        18.59055        -0.45620
O         21.13119        12.74879        -1.42560
O         17.48446         8.20627        -1.66703
O          8.45299        16.54336        -2.35254
O         24.00045         8.25960         1.85810
O         29.01281         3.78510        -1.58021
O         21.65058         5.94829        -2.05341
O         16.62311        16.72083         2.71495
O          7.04181         8.42371         2.01667
O         18.79222         3.73556        -2.05964
O         15.46559        12.18024         2.50466
O          9.09084        14.07980        -2.19023
H          8.75285        14.74552        -2.83621
O          6.68881         7.96619        -1.61592
H          6.02504         7.58111        -2.22616
O          2.64344         5.54390         1.96987
H          2.89838         6.40939         2.35357
O         24.14011         5.61259         1.77249
H         24.04939         6.58745         2.03940
O         22.40419         8.63103        -2.29735
H         22.29526         7.70367        -2.62520
O          8.35875        12.35799         2.06062
H          8.68399        11.55416         2.54161
O         13.71766        20.34942         0.05957
H         13.90829        20.07049        -0.85925
O          3.10898         1.95875        -1.78418
H          3.88044         2.18913        -2.34570
O          1.72893         4.35891        -1.35153
H          1.89328         3.47109        -1.75875
O         24.54571        10.63093         1.71345
H         24.21294         9.86816         2.27468
O         20.23660        12.31125         2.11314
H         19.59919        12.68208         2.75990
O         10.86659         7.48134         2.50921
H         10.45481         8.31727         2.85007
O         30.42334         8.32101         1.50211
H         31.14009         7.96636         2.06694
O         29.38869        14.38873        -2.47766
H         30.18207        13.94224        -2.84462
O         26.38222         8.24011        -1.89036
H         26.80500         8.87288        -2.50745
O         26.46772         8.02500         1.75417
H         25.66858         8.10219         2.35012
O         21.66167         4.38217         1.21821
H         22.44705         4.78167         1.68399
O         21.38370         3.31281        -2.27210
H         20.57502         3.25516        -2.82961
O         23.18899        15.52640        -1.53033
H         22.89809        14.75903        -2.06799
O         29.84520         8.11556        -2.10820
H         29.01034         8.06289        -2.61842
O          2.31648        14.58412         1.03508
H          2.40241        15.55061         1.17802
O          2.19926         8.20592        -2.10942
H          2.07471         7.23751        -2.21164
O         16.62571        10.60943        -1.40303
H         17.00471        10.02422        -2.10152
O         25.99118         2.00830        -2.10603
H         26.77565         2.55648        -2.32711
O         13.42593         2.09985        -2.06008
H         14.23304         2.58546        -2.33679
O         23.65442        15.85024         2.08811
H         23.67300        16.63247         2.67810
O         14.90742         9.45386         2.72488
H         14.98439        10.31845         3.19046
O          5.73338        10.68475         1.84817
H          6.06781         9.80091         2.19610
O          8.54140         3.40284        -1.87811
H          9.37771         2.96933        -2.15406
O          9.37228         9.80341         2.50952
H          8.49306         9.29119         2.53753
H          0.81269         1.63373         1.78157
H          0.42467         4.00377         1.24673
H          2.65201         0.35393         0.72920
H          0.23193         6.12012         0.82330
H          0.19161         8.37934        -0.02235
H          0.26030        10.22067        -0.92280
H          0.28893        12.66914        -0.82839
H          0.32706        14.57960        -1.09846
H          0.52359        16.92364        -1.75249
H          1.82532        19.03514        -1.74039
H          4.83349         0.28686        -0.16877
H          4.00545        20.22404        -1.62711
H          7.25128         0.25397         0.30471
H          6.42160        20.20256        -1.17134
H          9.74487         0.21895         0.27044
H          8.87808        20.14034        -0.76354
H         12.19543         0.20595        -0.18807
H         11.19730        20.12971        -0.10449
H         14.73098         0.21923        -0.20900
H         13.20879        19.54098         1.87472
H         17.18975         0.25682         0.12043
H         15.93850        20.20341         0.94773
H         19.65593         0.31677         0.14536
H         18.42581        20.26672         0.84309
H         22.07545         0.30418         0.08680
H         20.89414        20.29797         0.86324
H         24.51429         0.25594        -0.34101
H         23.39037        20.31449         0.72864
H         26.99440         0.29316         0.14218
H         25.86232        20.34283         0.36258
H         29.46822         0.32976         0.50418
H         28.31546        20.34720         0.02723
H         31.57812         1.57787         0.67483
H         32.78868         3.75489         0.83614
H         32.80418         6.21112         0.63162
H         32.90477         8.02646        -0.32048
H         32.88038        10.37074        -0.98515
H         32.90770        12.31590        -0.69326
H         32.92775        14.73580        -0.50107
H         32.93745        16.68729        -0.66596
H         30.74216        20.37016        -0.22865
H         32.89702        19.14504        -0.48384
