         349
 CSIRO Nanostructure Databank - Neutral Graphene Oxide Data Set
C          1.15068         3.46582         0.07783
C         -0.02008         4.10855         0.47820
C          1.17676         6.21532         0.68591
C         -0.00540         5.47365         0.78359
C          1.25098         7.68294         1.09596
C         -0.03938         8.46050         0.95588
C          1.19874        10.57605         0.67758
C         -0.03580         9.79760         0.78685
C          1.20320        11.99877         0.70373
C         -0.02116        12.78955         0.80211
C          1.25353        14.92388         0.99887
C         -0.03002        14.13724         0.88630
C          1.19931        16.38283         0.56011
C          0.04779        17.10605         0.39857
C          1.18617        19.20101        -0.26054
C          0.03599        18.47821        -0.02258
C          1.20687        20.55259        -0.83286
C         -0.00679        21.15636        -1.22040
C          1.19771        23.08994        -1.98860
C         -0.00521        22.38282        -1.86853
C          1.23032        25.42545        -2.06354
C          0.06357        26.21074        -2.13767
C          1.16363        27.93642        -0.87114
C         -0.00309        27.42425        -1.47341
C          1.14818        29.23430        -0.22639
C          3.59828         3.47624        -0.49342
C          2.35295         4.17991        -0.00648
C          3.64906         6.27417         0.33124
C          2.37185         5.55696         0.29917
C          3.66545         7.66470         0.46765
C          2.35205         8.38460         0.29320
C          3.64930        10.55361         0.45064
C          2.41558         9.87296         0.54779
C          3.63602        11.97447         0.36700
C          2.42836        12.68197         0.52284
C          3.67799        14.90268         0.08643
C          2.38778        14.16130         0.32525
C          3.73082        16.35516         0.23586
C          2.48943        17.09298         0.47737
C          3.70247        19.10746        -0.55518
C          2.47139        18.58075         0.09522
C          3.70543        20.51816        -1.08375
C          2.42706        21.27562        -1.01217
C          3.65915        23.47637        -1.47760
C          2.41304        22.61828        -1.46522
C          3.59006        24.94623        -0.95557
C          2.39340        25.83697        -1.38742
C          3.60789        27.88376        -0.59857
C          2.35593        27.17145        -0.90458
C          3.56354        29.18213         0.09781
C          2.27629        29.80565         0.27913
C          6.08963         3.50427        -0.24321
C          4.88578         4.16711        -0.10421
C          6.10688         6.21653         0.55069
C          4.87522         5.54808         0.26308
C          6.08279         7.62660         0.79968
C          4.88759         8.36324         0.65711
C          6.11386        10.50106         0.65021
C          4.90907         9.82027         0.57969
C          6.20547        11.91846         0.28387
C          4.89293        12.69325         0.08132
C          6.13930        14.84925         0.26506
C          4.94147        14.16201         0.15692
C          6.19783        16.27135         0.10276
C          4.95994        17.02671         0.00349
C          6.21137        19.10320        -0.63853
C          4.96865        18.40069        -0.31045
C          6.21497        20.58083        -0.69805
C          5.04622        21.22291        -1.42672
C          6.17889        23.48216        -0.74946
C          4.98530        22.76431        -1.32510
C          6.14437        24.87840        -0.67095
C          4.96114        25.66388        -1.21918
C          6.03897        27.75189         0.01356
C          4.93294        27.13462        -0.70925
C          6.01362        29.13957         0.28153
C          4.75120        29.82831         0.35665
C          8.56252         3.50957        -0.30729
C          7.33363         4.15006         0.03758
C          8.60489         6.11098         0.94223
C          7.32664         5.48133         0.52090
C          8.61793         7.59189         1.18628
C          7.31394         8.32612         1.19156
C          8.64906        10.52813         0.99311
C          7.34414         9.83677         1.10836
C          8.63585        11.94780         0.83140
C          7.42813        12.65018         0.59317
C          8.66877        14.79527         0.21237
C          7.39134        14.15407         0.75650
C          8.66740        16.30251         0.33502
C          7.44721        16.95749         0.11455
C          8.69320        19.17329         0.00202
C          7.49708        18.37316        -0.31069
C          8.62037        20.57358        -0.07675
C          7.38235        21.29097        -0.41982
C          8.48034        23.43087         0.31338
C          7.33638        22.72978        -0.37488
C          8.59755        24.90119        -0.01175
C          7.39158        25.69404        -0.46160
C          8.46941        27.74141         0.62460
C          7.17517        26.91452         0.50794
C          8.47166        29.21837         0.44604
C          7.22229        29.86464         0.49143
C         10.96269         3.64909        -0.79021
C          9.80221         4.15139        -0.19044
C         10.96382         6.35483         0.05348
C          9.93800         5.38484         0.68571
C         11.04570         7.68560         0.76805
C          9.88752         8.36758         1.06275
C         11.10120        10.55319         0.99784
C          9.87385         9.82852         1.11565
C         11.09522        11.95826         0.85435
C          9.88522        12.65030         0.82520
C         11.13861        14.90462         0.93098
C          9.85681        14.13103         0.86759
C         11.12717        16.35608         0.66568
C          9.89852        17.02841         0.43134
C         11.10079        19.19842         0.55280
C          9.89162        18.46902         0.33968
C         11.05380        20.59258         0.43005
C          9.83328        21.31854         0.15326
C         11.04051        23.47220         0.62416
C          9.79694        22.71288         0.20464
C         11.05454        24.93032         0.26655
C          9.76307        25.58068         0.20948
C         10.99359        27.80130         0.15602
C          9.76585        27.04201         0.41132
C         10.95430        29.22341         0.17861
C          9.69082        29.89506         0.30412
C         13.39914         3.75901        -1.23867
C         12.21595         4.34201        -0.72532
C         13.52428         6.29100        -0.02949
C         12.28482         5.65580        -0.17918
C         13.61052         7.58201         0.69528
C         12.34514         8.32162         1.00997
C         13.67218        10.55576         0.86376
C         12.38789         9.84577         1.13029
C         13.65517        11.96794         0.79810
C         12.36822        12.69677         0.50564
C         13.60139        14.86334         0.84369
C         12.39447        14.15825         0.87736
C         13.56526        16.31201         0.93470
C         12.36735        17.04840         0.81692
C         13.54390        19.22033         1.03898
C         12.36643        18.51091         0.82954
C         13.56201        20.69497         1.01102
C         12.26309        21.37599         0.69531
C         13.54817        23.50433         0.24643
C         12.26928        22.74341         0.07455
C         13.51013        24.91507        -0.24372
C         12.21935        25.63711         0.09422
C         13.41879        27.82537         0.03793
C         12.20820        27.09673         0.04108
C         13.40386        29.24678        -0.03081
C         12.17460        29.92776         0.01953
C         15.79550         3.83266        -1.91286
C         14.61497         4.43496        -1.19119
C         15.99737         6.37776        -0.44650
C         14.71078         5.69211        -0.54119
C         16.06873         7.68817         0.02362
C         14.90587         8.36362         0.63080
C         16.09244        10.57722         0.42262
C         14.88176         9.84859         0.68819
C         16.11351        11.99865         0.56034
C         14.86586        12.71058         0.74323
C         16.11432        14.86696         0.69257
C         14.83957        14.13187         0.79487
C         16.11335        16.35179         0.86066
C         14.82590        17.02342         1.21305
C         16.12229        19.29370         1.19259
C         14.82028        18.52846         1.30505
C         16.08093        20.77994         0.93144
C         14.79535        21.44766         0.75737
C         16.02154        23.55459         0.28715
C         14.76685        22.83052         0.42446
C         15.99500        24.97875         0.14392
C         14.76885        25.66067         0.07928
C         15.97462        27.91815         0.10943
C         14.69293        27.11732         0.22683
C         15.86600        29.34087        -0.28838
C         14.65359        29.96198        -0.25422
C         18.29382         3.81047        -1.99654
C         17.11900         4.46055        -1.55487
C         18.54902         6.16390        -0.41299
C         17.18817         5.68765        -0.89043
C         18.60724         7.68541        -0.19350
C         17.34213         8.42752         0.06310
C         18.49481        10.62748        -0.12029
C         17.30114         9.91225         0.05342
C         18.54505        12.01406         0.19007
C         17.35806        12.68632         0.50290
C         18.57895        14.91230         0.39019
C         17.40931        14.12419         0.97470
C         18.67353        16.36232         0.76726
C         17.39832        17.10180         1.09806
C         18.54487        19.22953         0.54385
C         17.38677        18.56382         0.89954
C         18.48674        20.67159         0.18305
C         17.28841        21.46028         0.45225
C         18.51427        23.59215         0.16319
C         17.26629        22.85242         0.26972
C         18.46722        25.04594         0.18127
C         17.25737        25.70561         0.11277
C         18.45061        27.95620         0.10053
C         17.22565        27.16237        -0.29991
C         18.39541        29.44439        -0.19349
C         17.12012        30.03944        -0.78575
C         19.55350         4.42280        -1.88985
C         20.94709         6.35516        -1.23234
C         19.69793         5.64581        -1.24518
C         21.01953         7.68718        -0.95469
C         19.76400         8.45195        -0.76898
C         20.94194        10.74848        -0.76975
C         19.69662         9.95676        -0.69698
C         21.03089        11.99326        -0.28458
C         19.88764        12.70478         0.39260
C         21.08505        15.00883         0.04788
C         19.84913        14.19619         0.05690
C         21.06476        16.36801         0.11137
C         19.86729        17.13419         0.37207
C         21.01996        19.33558         0.25468
C         19.81213        18.53307         0.36197
C         21.02830        20.68775         0.15629
C         19.78687        21.45010        -0.07025
C         20.95530        23.69153        -0.11712
C         19.73812        22.92421         0.05291
C         20.96792        25.04132        -0.03717
C         19.76651        25.79019         0.47630
C         20.88973        28.02577         0.05811
C         19.75484        27.27243         0.14135
C         20.85046        29.42599        -0.28519
C         19.68303        30.09534        -0.47418
O         16.12060        15.76645        -0.48553
O          4.52815        23.30810        -2.62246
O         18.28676         8.01110         1.19400
O         18.99610        20.92120        -1.18497
O          7.04161        18.49412        -1.70463
O          5.64515        12.18153        -1.07142
O         18.89177        14.58757        -0.98734
O         12.41399         8.98273         2.30934
O          7.16246         9.14572         2.39952
O          9.23803        27.34176         1.80257
O          3.48207        19.37570        -1.98946
O         18.26321        16.61481         2.15866
O          2.71680        14.52796        -1.03548
O         12.70688        21.32611         2.08986
O         18.23003        28.93111         1.16282
O         14.82373        17.68836         2.51483
O         10.27205        14.63319         2.15709
O         15.45955        27.60250         1.41526
O         16.27509        20.21385         2.32194
O          2.63953        18.18805         1.47627
O          4.46144        28.00128        -1.80832
O          1.17317        24.23504        -2.78267
O         19.38431         9.23959        -1.95433
O          8.60374         6.63154         2.31773
O         14.50793         7.60517         1.84262
O          7.73778        26.29011        -1.74856
H          7.01031        26.08473        -2.38917
O          8.16324        23.41031         1.76144
H          9.01582        23.57764         2.23441
O         10.45280         6.70244        -1.27626
H         10.50401         5.89498        -1.83291
O         20.13047        12.68175         1.84089
H         20.20965        11.74502         2.12154
O          3.48400        24.85864         0.48456
H          2.60211        24.50420         0.72155
O         12.31903        12.74187        -0.98469
H         13.14215        13.18044        -1.29280
O         12.04926        22.54668        -1.35365
H         12.28717        23.39725        -1.80186
O         13.47791        24.85332        -1.76352
H         14.27921        24.35398        -2.03598
O          5.33831        20.91323        -2.80510
H          4.95810        21.63655        -3.35606
O          5.17792        25.75437        -2.64529
H          4.73308        26.58382        -2.94881
O          1.64207         7.72195         2.49297
H          0.96904         7.23727         3.01388
O          7.40530        14.39497         2.19597
H          6.64447        13.93097         2.60277
O         17.56158        14.06773         2.41100
H         18.42871        13.63909         2.60108
O          3.61169         2.10606        -0.07594
H          3.68242         2.08477         0.90022
O         18.72750         5.53530         0.89488
H         18.36631         6.17666         1.55520
O          1.62745        14.95336         2.41234
H          0.96350        15.48996         2.89389
O         19.87038        25.75029         1.94230
H         19.82157        24.81079         2.21884
O          8.79334        14.49923        -1.19817
H          8.04446        14.91863        -1.67296
O         17.17960        29.92959        -2.21889
H         17.24080        28.96821        -2.43464
O         17.23744        27.14502        -1.77334
H         16.56233        26.50120        -2.07758
O          1.97005         8.24251        -1.10822
H          2.62166         8.73282        -1.65189
O          6.83038        26.40659         1.80620
H          7.67183        26.35846         2.32118
O         15.84569         2.41343        -1.71818
H         16.00683         2.24297        -0.76744
O         11.01600        23.47683         2.08664
H         11.60409        22.75892         2.42591
O         10.45657         4.92177         1.94209
H         10.07087         5.50080         2.64255
H          1.14512         2.39366        -0.16350
H         -0.96001         3.54410         0.55201
H         -0.94092         5.95589         1.10081
H         -1.00220         7.94088         1.07529
H         -0.99743        10.32939         0.74733
H         -0.98481        12.26050         0.79324
H         -0.99247        14.66331         0.97302
H         -0.92998        16.61480         0.50710
H         -0.94993        18.91912        -0.22298
H         -0.95691        20.62177        -1.09645
H         -0.92723        22.80327        -2.28900
H         -0.80199        25.81644        -2.68530
H         -0.93217        28.01035        -1.46135
H          0.18129        29.75137        -0.14445
H          3.55362         3.45498        -1.62064
H          2.23258        30.78646         0.77387
H          6.09605         2.46023        -0.58883
H          4.74453        30.86397         0.72743
H          8.51314         2.53570        -0.81863
H          7.17423        30.96133         0.56492
H         10.91819         2.69352        -1.33483
H          9.67560        30.99289         0.22319
H         13.35768         2.76333        -1.70354
H         12.16346        31.02714        -0.01875
H         15.62838         3.98681        -3.01797
H         14.58784        31.03440        -0.49528
H         18.19638         2.84381        -2.50998
H         17.06236        31.13116        -0.54527
H         20.42247         3.96243        -2.38348
H         21.85938         5.80723        -1.51558
H         21.98176         8.21517        -1.00619
H         21.80868        10.29176        -1.26930
H         21.99064        12.52583        -0.35515
H         22.05329        14.49912        -0.06067
H         22.01862        16.90496         0.00747
H         21.98506        18.82032         0.36188
H         21.98449        21.22677         0.21789
H         21.87194        23.15817        -0.40800
H         21.90254        25.58669        -0.22975
H         21.87908        27.55940         0.16846
H         21.80752        29.93560        -0.46773
H         19.68060        31.12099        -0.87138
