         424
 CSIRO Nanostructure Databank - Neutral Graphene Oxide Data Set
C          1.46219         1.98800         0.76299
C          1.39505         3.37810         0.82521
C          2.63935         1.35321         0.35803
C          2.52335         4.16823         0.51992
C          1.25107         6.34016         0.60709
C          1.21168         7.72818         0.62128
C          2.46904         5.63279         0.52795
C          2.40017         8.50346         0.59701
C          1.18080        10.70127         0.63599
C          1.18058        12.07580         0.59320
C          2.39107         9.94925         0.58777
C          2.39663        12.82609         0.51998
C          1.18040        15.03764         0.41605
C          1.16783        16.38595         0.53525
C          2.40153        14.26108         0.53671
C          2.39125        17.13765         0.98954
C          2.42764        18.57851         0.55487
C          3.77729         2.11482         0.05925
C          3.73314         3.51343         0.18322
C          5.01996         1.45125        -0.49259
C          4.96729         4.31135        -0.16695
C          3.68184         6.38083         0.48211
C          3.64425         7.81061         0.56739
C          4.93705         5.71190         0.38017
C          4.87180         8.54167         0.52985
C          3.62009        10.66236         0.48540
C          3.62317        12.10493         0.46875
C          4.84916         9.94446         0.43277
C          4.86933        12.82049         0.44362
C          3.63547        14.96509         0.58718
C          3.66059        16.39482         0.65076
C          4.87219        14.24593         0.51366
C          4.86357        17.09501         0.52175
C          3.59114        19.22770         0.35380
C          4.87591        18.54229         0.42094
C          6.28908         2.17085        -0.09594
C          6.24389         3.57064         0.14875
C          7.50030         1.48084        -0.09954
C          7.39044         4.26570         0.56776
C          6.14270         6.40009         0.62929
C          6.12684         7.83616         0.65722
C          7.36759         5.66045         0.79932
C          7.33271         8.56672         0.74410
C          6.11664        10.65801         0.05406
C          6.10491        12.12568         0.37644
C          7.36868         9.95695         0.51024
C          7.32744        12.81676         0.41637
C          6.10393        14.95861         0.47481
C          6.10852        16.38625         0.44347
C          7.33932        14.24827         0.43702
C          7.33091        17.09579         0.35407
C          6.06952        19.22289         0.30729
C          7.33503        18.53605         0.29617
C          8.72183         2.13175         0.22537
C          8.64625         3.48079         0.90954
C          9.95619         1.51820         0.09003
C          9.87983         4.34528         0.60119
C          8.55907         6.36204         1.31100
C          8.56106         7.89306         1.19767
C          9.88544         5.60483         1.46299
C          9.83267         8.60836         1.07615
C          8.58038        10.66878         0.55341
C          8.57625        12.09652         0.42286
C          9.83833         9.96497         0.73780
C          9.79286        12.80753         0.36428
C          8.56656        14.95796         0.36931
C          8.56760        16.38524         0.31524
C          9.80510        14.24043         0.31610
C          9.79628        17.09408         0.22118
C          8.54796        19.22063         0.20779
C          9.79842        18.52896         0.17508
C         11.19466         2.19458         0.36612
C         11.19286         3.59942         0.68876
C         12.41343         1.51917         0.26935
C         12.37579         4.30085         0.87562
C         11.13989         6.42487         1.19579
C         11.09465         7.88608         1.33597
C         12.35204         5.75980         1.07592
C         12.40035         8.64082         1.06450
C         11.06673        10.68255         0.51517
C         11.03113        12.08963         0.28094
C         12.33340        10.01577         0.55375
C         12.22814        12.79584         0.01924
C         11.02970        14.93701         0.23070
C         11.03599        16.38164         0.19234
C         12.25085        14.20339         0.05749
C         12.24850        17.08710         0.12732
C         11.02860        19.21309         0.10923
C         12.26538        18.51512         0.10182
C         13.64615         2.20027         0.44102
C         13.64530         3.61953         0.73311
C         14.86855         1.52645         0.28675
C         14.86112         4.30363         0.81994
C         13.60011         6.48262         0.98794
C         13.62304         7.86232         0.82735
C         14.89768         5.75302         1.21612
C         14.82573         8.57245         0.47082
C         13.51152        10.63942         0.13564
C         13.42795        12.02170        -0.45148
C         14.77028         9.95119         0.13675
C         14.71568        12.79135        -0.40225
C         13.49089        14.90224        -0.11551
C         13.53736        16.34057         0.33392
C         14.66713        14.21117        -0.41223
C         14.77479        17.08892        -0.08459
C         13.50916        19.20973         0.07647
C         14.76750        18.54861        -0.00427
C         16.10233         2.20075         0.40515
C         16.11152         3.62407         0.69134
C         17.31375         1.54118         0.13493
C         17.33288         4.32034         0.74379
C         16.11255         6.46572         0.66632
C         16.06610         7.85664         0.39761
C         17.33005         5.75377         0.58709
C         17.26455         8.57200         0.08323
C         15.98442        10.65747        -0.19013
C         15.94364        12.09930        -0.44320
C         17.20900         9.97668        -0.14799
C         17.15608        12.82000        -0.66342
C         15.86957        14.97270        -0.90448
C         15.90357        16.40848        -0.44232
C         17.17721        14.21876        -0.76569
C         17.20417        17.08342        -0.42344
C         15.95466        19.27060        -0.17903
C         17.25176        18.60976        -0.22631
C         18.58444         2.13148         0.33079
C         18.62769         3.54957         0.95655
C         19.68614         1.32236         0.01505
C         19.83480         4.37574         0.52170
C         18.53039         6.46500         0.22947
C         18.50380         7.85945        -0.00139
C         19.76974         5.73808         0.12816
C         19.71984         8.56404        -0.36437
C         18.50034        10.76661        -0.14791
C         18.39400        12.02213        -1.00119
C         19.72417         9.96532        -0.52719
C         19.67813        12.81790        -1.01741
C         18.39707        14.90654        -0.98091
C         18.38124        16.39460        -1.03533
C         19.62661        14.21178        -1.12397
C         19.66201        17.15788        -1.07940
C         18.50812        19.30794        -0.54105
C         19.69811        18.61373        -0.74515
C         21.05377         1.65812         0.27342
C         21.09779         3.80070         0.61984
C         22.20240         1.30886        -0.39190
C         22.25785         4.31997        -0.00867
C         20.96890         6.40171        -0.27310
C         20.93495         7.83324        -0.53475
C         22.17232         5.66988        -0.41040
C         22.12365         8.53573        -0.80529
C         20.90757        10.66948        -0.86145
C         20.91356        12.10298        -1.06641
C         22.13935         9.94853        -0.95456
C         22.14530        12.79347        -1.28207
C         20.86100        14.98119        -1.54951
C         20.92860        16.35015        -0.86313
C         22.15892        14.22594        -1.37394
C         22.19169        17.11138        -1.18726
C         20.96082        19.24586        -0.79889
C         22.17964        18.53826        -1.02759
C         23.44479         2.08342        -0.29346
C         23.45122         3.52234        -0.22937
C         24.65307         1.39998        -0.48741
C         24.67612         4.22401        -0.52891
C         23.36650         6.31823        -1.04503
C         23.39886         7.79224        -0.73415
C         24.67482         5.62385        -0.76536
C         24.67910         8.50424        -0.99809
C         23.35393        10.65668        -1.23023
C         23.37828        12.05781        -1.36604
C         24.59070         9.90454        -1.47192
C         24.63193        12.75359        -1.57292
C         23.34067        14.94484        -1.48839
C         23.37643        16.39946        -1.40742
C         24.59228        14.21331        -1.74915
C         24.63836        17.10089        -1.37002
C         23.40984        19.22554        -1.05746
C         24.63610        18.52907        -1.16569
C         25.90522         2.07002        -0.58418
C         25.90594         3.50258        -0.62842
C         27.12338         1.36755        -0.70460
C         27.12837         4.19992        -0.85674
C         25.89272         6.32520        -1.00570
C         25.91375         7.74740        -1.25488
C         27.11275         5.60579        -1.00070
C         27.12721         8.48541        -1.35404
C         25.90611        10.64189        -1.67322
C         25.86986        12.10647        -1.60629
C         27.15673         9.91242        -1.41182
C         27.13219        12.80406        -1.50203
C         25.91528        14.97476        -1.71011
C         25.87443        16.41595        -1.39844
C         27.14966        14.21789        -1.45164
C         27.09548        17.08735        -1.15926
C         25.86447        19.21294        -1.02937
C         27.09000        18.51957        -0.99144
C         28.35888         2.04723        -0.86303
C         28.36157         3.47076        -0.95942
C         29.60101         1.35107        -0.90870
C         29.60771         4.17054        -1.07679
C         28.36380         6.31051        -1.43406
C         28.37013         7.79639        -1.19681
C         29.62852         5.58556        -1.07732
C         29.55648         8.49482        -1.00785
C         28.37391        10.62820        -1.32636
C         28.36005        12.07479        -1.35807
C         29.61312         9.92208        -1.17881
C         29.58085        12.77745        -1.15796
C         28.34890        14.92535        -1.18873
C         28.33188        16.36414        -1.08176
C         29.57172        14.20640        -1.05515
C         29.54088        17.05920        -0.84846
C         28.31297        19.19917        -0.78145
C         29.53359        18.50215        -0.70357
C         30.82928         2.02428        -1.00345
C         30.84454         3.47239        -1.08473
C         32.06469         1.32473        -0.93701
C         32.05172         4.20237        -1.22299
C         30.83331         6.28684        -0.95522
C         30.67975         7.68254        -0.42619
C         32.06818         5.61034        -1.15428
C         32.33300         8.65366        -1.82600
C         30.86156        10.64494        -1.22746
C         30.82759        12.06566        -1.07186
C         32.14659         9.99858        -1.33433
C         32.04006        12.78517        -0.81943
C         30.78856        14.92063        -0.82519
C         30.76886        16.34424        -0.72823
C         32.01582        14.20923        -0.67583
C         31.98593        17.04478        -0.46602
C         30.74426        19.19122        -0.48479
C         31.98677        18.51028        -0.40193
C         33.30036         1.99563        -0.96993
C         33.36107         3.45644        -1.37554
C         34.50141         1.33250        -0.72621
C         34.44187         4.19263        -0.57821
C         33.36559         6.34639        -1.55932
C         33.38012         7.85367        -1.34922
C         34.54871         5.65632        -0.91967
C         34.53180         8.51536        -0.80910
C         33.31651        10.67417        -0.87012
C         33.26736        12.08739        -0.63652
C         34.52464         9.95105        -0.67428
C         34.45943        12.79138        -0.27644
C         33.21313        14.91780        -0.35783
C         33.16907        16.33380        -0.25085
C         34.44346        14.20713        -0.14902
C         34.35382        17.10035         0.27160
C         33.18715        19.20583        -0.34516
C         34.49074        18.46386        -0.40453
C         35.75895         2.03037        -0.61274
C         35.76039         3.47164        -0.59615
C         36.94607         1.33382        -0.45679
C         36.93821         4.19298        -0.31355
C         35.70848         6.34908        -0.58222
C         35.71898         7.78683        -0.56842
C         36.90455         5.61635        -0.21419
C         37.03469         8.50313        -0.43082
C         35.70612        10.65048        -0.24185
C         35.67819        12.06812        -0.06439
C         36.90992         9.94647        -0.00268
C         36.87865        12.76673         0.26546
C         35.66178        14.91096         0.15381
C         35.65785        16.34536         0.26175
C         36.86835        14.20532         0.34807
C         36.81524        17.05494         0.53029
C         35.62043        19.21570         0.22770
C         36.77758        18.52590         0.62483
C         38.27726         2.00937        -0.31816
C         38.16713         3.49911        -0.05624
C         39.12909         1.36968         0.76916
C         39.26091         4.18386         0.47533
C         38.03679         6.32032         0.30716
C         38.02485         7.71555         0.38256
C         39.19460         5.57602         0.74851
C         39.01061         8.43538         1.24606
C         38.06257        10.63909         0.41472
C         38.07183        12.04296         0.51253
C         39.27997         9.85216         0.75934
C         39.39683        12.77015         0.64492
C         38.06671        14.91177         0.73818
C         38.04231        16.35762         0.83212
C         39.24380        14.21910         1.04226
C         39.16942        17.05938         1.26288
C         37.92090        19.22320         1.01212
C         39.25620        18.55992         1.11426
C         40.19582         2.01887         1.24735
C         40.53298         3.39759         0.72095
C         41.52124         4.13479         1.57878
C         40.29715         6.26263         1.37133
C         40.26112         7.64631         1.56029
C         41.43184         5.45824         1.81314
C         41.31922         8.38477         2.20152
C         40.46930        10.55317         1.34750
C         40.42835        12.02550         1.46824
C         41.39232         9.74353         2.16779
C         41.38765        12.72708         2.15220
C         40.33996        14.89896         1.67058
C         40.29591        16.35398         1.80882
C         41.38769        14.14663         2.20201
C         41.26252        17.06933         2.51476
C         40.14240        19.19783         2.15086
C         41.12474        18.47423         2.74895
O          8.32846         7.19170         2.49194
O         40.43098        10.07241        -0.09286
O         25.14709        10.07628        -2.81037
O         25.26617        14.64947        -2.98481
O         18.88534        16.93612        -2.31711
O         21.21608         2.59719         1.32337
O         24.20869         8.25126         0.39365
O         17.49134        17.63783         0.88819
O         31.26605         8.03981         0.58793
O         11.88548         8.46114         2.43314
O         20.75449        15.16508        -2.98466
H         19.98183        15.76319        -3.14721
O         18.70351        11.20973         1.22592
H         18.79635        10.41518         1.79210
O         18.20010        11.55824        -2.37529
H         18.26723        12.33520        -2.96959
O         33.49881         6.15203        -2.99968
H         33.64676         5.18415        -3.16333
O         33.96624         4.15683         0.81600
H         34.63644         4.60672         1.37288
O         31.48985         8.15177        -2.76644
H         30.82823         8.82265        -3.02968
O         33.76589         3.46823        -2.77852
H         33.14296         2.89831        -3.27666
O         15.07089         5.75439         2.68325
H         14.91698         6.67055         2.99833
O         10.01371         5.22883         2.84606
H          9.66301         5.97752         3.37945
O          9.75229         4.80669        -0.77101
H          9.74904         4.02016        -1.35678
O         13.67080        16.24039         1.80829
H         13.76838        17.15432         2.15233
O         20.98101        16.08091         0.56909
H         21.02287        16.93997         1.04014
O         18.73704         3.34275         2.39359
H         19.60060         2.89307         2.54285
O          6.16296        10.59078        -1.43180
H          5.35734        11.04221        -1.76374
O         34.05974        17.38803         1.67584
H         33.94811        16.53254         2.14077
O         39.93222        18.80872        -0.18857
H         40.79609        18.34469        -0.14949
O         38.34239         8.65664         2.55408
H         38.12791         7.77557         2.92824
O         34.82764        18.22240        -1.81245
H         34.98886        19.09002        -2.23816
O         15.66504        15.06169        -2.36465
H         15.43153        14.16318        -2.68396
O          8.61166         3.18973         2.32818
H          7.85742         2.58662         2.48995
O         38.98836         1.81589        -1.58065
H         39.88910         2.21240        -1.45674
O         41.18197         3.19653        -0.58669
H         41.37530         4.08509        -0.95496
O          5.08139         0.07006        -0.12803
H          5.16942         0.01125         0.84494
O          2.31154        17.16990         2.46487
H          2.31799        16.23839         2.77223
O         13.19049        11.82046        -1.91204
H         12.32378        11.36803        -2.00101
O         28.33365         6.21515        -2.92110
H         27.48208         6.60525        -3.21652
O          4.95437         4.46679        -1.63993
H          4.16923         5.01041        -1.86514
O         23.17377         6.25897        -2.50299
H         23.09723         5.31453        -2.75499
O         39.95403        12.78068        -0.72299
H         40.20214        11.84340        -0.92174
O         37.59872         8.56188        -1.80627
H         36.93834         9.00970        -2.37724
H          0.57420         1.38851         1.00785
H          0.45026         3.85499         1.11946
H          2.68230         0.25897         0.26397
H          0.30106         5.78877         0.63664
H          0.23194         8.22351         0.65475
H          0.21808        10.17774         0.71310
H          0.21929        12.60454         0.64537
H          0.24531        14.51508         0.16725
H          0.22449        16.94115         0.42119
H          1.47125        19.11993         0.49347
H          4.94340         1.47769        -1.61550
H          3.59433        20.29986         0.10348
H          7.51393         0.42722        -0.41746
H          6.06542        20.31974         0.21487
H         10.00422         0.47866        -0.27072
H          8.54798        20.32034         0.16529
H         12.42445         0.44607         0.02677
H         11.03401        20.31305         0.08015
H         14.86591         0.44995         0.05951
H         13.49488        20.31004         0.07909
H         17.27291         0.50255        -0.22916
H         15.90861        20.35760        -0.34161
H         19.47643         0.36440        -0.48845
H         18.52823        20.40577        -0.46727
H         22.18445         0.47558        -1.11042
H         21.01429        20.33298        -0.63881
H         24.63721         0.30239        -0.55830
H         23.42328        20.31688        -0.92009
H         27.11690         0.26817        -0.66176
H         25.85945        20.30496        -0.89637
H         29.59785         0.25358        -0.82957
H         28.30719        20.29279        -0.66224
H         32.05149         0.23866        -0.75779
H         30.72925        20.28880        -0.40817
H         34.49144         0.24535        -0.55380
H         33.18394        20.30658        -0.38298
H         36.93516         0.23357        -0.49628
H         35.61411        20.31727         0.23726
H         38.88348         0.35249         1.11118
H         37.88471        20.32194         1.07650
H         40.85498         1.56195         2.00141
H         42.39169         3.56995         1.94575
H         42.22798         5.94832         2.39136
H         42.10148         7.83659         2.74681
H         42.20483        10.24788         2.70898
H         42.19989        12.19946         2.67217
H         42.22386        14.63939         2.71519
H         42.11329        16.55291         2.97862
H         40.05379        20.28016         2.32467
H         41.83121        18.96034         3.43793
