         480
 CSIRO Nanostructure Databank - Neutral Graphene Oxide Data Set
C         38.20248        50.37601         3.34747
C         37.03438        51.07665         3.58674
C         38.19586        53.16468         3.22149
C         37.03010        52.48252         3.52317
C         40.67545        48.87216         2.86713
C         40.62978        50.32193         2.76018
C         39.41597        51.04752         3.03854
C         40.63455        53.18335         2.67503
C         39.40952        52.47477         2.97354
C         40.69944        54.60102         2.66881
C         42.89393        48.78665         1.74784
C         41.73056        48.14593         2.44814
C         42.98698        50.26931         2.03223
C         41.80495        51.00807         2.40357
C         43.04247        53.14941         2.16675
C         41.82797        52.45489         2.40208
C         43.09239        54.56541         2.17637
C         41.88102        55.26826         2.42516
C         45.59333        46.13983         2.39859
C         44.35677        46.82424         2.46228
C         45.39973        48.78995         1.47205
C         44.23043        48.10246         1.95943
C         45.35593        50.18816         1.33746
C         44.18998        50.91166         1.78451
C         45.56066        53.06971         1.66899
C         44.28533        52.36470         2.02170
C         45.52849        54.54511         1.36066
C         44.33126        55.27806         1.92998
C         45.65561        57.32725         1.69594
C         44.44815        56.65324         2.01901
C         47.85482        44.46397         1.65053
C         47.82711        45.84865         1.36533
C         46.69465        46.68506         1.75612
C         47.75579        48.65997         0.70193
C         46.63776        48.05522         1.27583
C         47.74157        50.07987         0.33131
C         46.51112        50.90682         0.77023
C         47.89720        53.01803         0.85256
C         46.67572        52.34113         1.03745
C         48.03317        54.38684         1.17238
C         46.87061        55.16073         1.78797
C         48.07137        57.33199         1.17691
C         46.85723        56.65541         1.48354
C         48.09575        58.68695         0.75904
C         49.61266        44.09254         0.02033
C         48.79519        43.62368         1.06971
C         49.51579        45.47847        -0.30097
C         48.79251        46.39642         0.47724
C         49.99244        48.60780        -0.49999
C         49.07417        47.91008         0.58557
C         50.18278        50.07695        -0.11061
C         49.05855        50.77975         0.22724
C         50.46393        52.90928         0.53637
C         49.13477        52.19842         0.66552
C         50.52541        54.38570         0.62559
C         49.33620        55.04490         1.22310
C         50.61528        57.33637         0.94235
C         49.34167        56.61984         1.29196
C         50.55382        58.76568         0.54448
C         49.26601        59.37539         0.50267
C         52.43371        41.49021        -0.52627
C         51.19863        42.09497        -0.06744
C         52.45588        44.42503        -1.36865
C         50.66398        43.25491        -0.56043
C         52.49724        45.79083        -1.29231
C         51.31199        46.61985        -1.18486
C         52.65159        48.51132        -0.33947
C         51.31783        47.88503        -0.70410
C         52.64371        50.01555        -0.49474
C         51.49674        50.73610        -0.21566
C         52.76714        52.89097        -0.36639
C         51.60101        52.18015        -0.04567
C         52.79429        54.34275        -0.36416
C         51.65581        55.05867         0.21704
C         52.97605        57.22958        -0.13162
C         51.81101        56.51301         0.47901
C         52.96002        58.74025        -0.19998
C         51.70343        59.45201         0.11224
C         52.71358        61.48803        -0.82999
C         51.66746        60.84466        -0.22774
C         54.88334        39.99124        -1.19885
C         54.82188        41.36742        -1.16486
C         53.56669        42.11547        -1.00375
C         54.85367        44.21853        -1.75723
C         53.67803        43.63024        -0.97655
C         54.88814        45.71187        -1.88055
C         53.76203        46.48555        -1.31092
C         55.03549        48.56436        -1.34888
C         53.82506        47.82584        -1.03392
C         55.05675        49.94037        -1.22996
C         53.99531        50.69737        -0.47369
C         55.07234        52.87853        -1.19842
C         53.95364        52.18231        -0.77229
C         55.07850        54.31667        -1.30644
C         53.89913        55.02424        -0.88624
C         55.08799        57.22113        -1.45198
C         53.78921        56.50764        -1.18115
C         55.10174        58.63120        -1.49925
C         53.97424        59.40481        -1.04193
C         55.02683        61.49407        -1.80948
C         53.90669        60.79445        -1.25800
C         55.04397        62.93155        -1.91509
C         57.34115        39.84834        -1.40751
C         56.10840        39.25695        -1.33701
C         57.40555        41.31846        -1.29470
C         56.11906        42.10023        -1.18921
C         57.44306        44.24257        -1.77268
C         56.15644        43.48920        -1.74874
C         57.47133        45.63538        -1.88306
C         56.21271        46.39802        -1.98854
C         57.45807        48.48136        -1.90252
C         56.23465        47.84515        -1.74517
C         57.42377        49.92664        -2.19080
C         56.16205        50.67055        -1.87304
C         57.51022        52.84374        -1.99931
C         56.20518        52.16098        -1.83045
C         57.48433        54.30075        -1.98954
C         56.23233        54.98283        -1.77099
C         57.45775        57.14051        -2.21166
C         56.13562        56.42882        -2.19360
C         57.41193        58.59342        -2.43830
C         56.22021        59.34665        -2.04130
C         57.43443        61.48184        -2.38348
C         56.22369        60.76663        -2.12688
C         57.40888        62.94721        -2.74748
C         56.13766        63.62378        -2.31695
C         59.70265        37.04491        -0.71631
C         58.60284        37.66439        -1.19199
C         59.86499        39.82253        -1.28315
C         58.62199        39.06807        -1.73885
C         59.93742        41.26772        -1.60367
C         58.63002        42.04908        -1.75628
C         59.91043        44.19945        -1.69549
C         58.67227        43.52068        -1.69404
C         59.95999        45.63947        -1.72819
C         58.71136        46.36644        -1.83024
C         59.94760        48.59657        -1.63521
C         58.69709        47.77276        -1.89734
C         60.01758        49.89156        -2.50459
C         58.69360        50.67087        -2.44178
C         59.95938        52.83142        -2.40893
C         58.67197        52.13554        -2.21239
C         59.95079        54.32708        -2.46924
C         58.66810        55.02043        -2.20835
C         59.92837        57.18546        -2.10485
C         58.66099        56.46526        -2.22244
C         59.95231        58.61480        -2.14362
C         58.73137        59.34611        -2.52091
C         59.87656        61.49159        -2.08003
C         58.69350        60.81220        -2.33368
C         59.82364        62.94343        -1.84319
C         58.65422        63.70296        -2.30991
C         60.00030        65.75944        -2.29513
C         58.75184        65.05893        -2.43912
C         62.22277        35.63195        -0.06731
C         62.18096        37.06061        -0.32238
C         60.97886        37.72481        -0.58799
C         62.16654        39.91864        -0.36472
C         60.95958        39.16526        -0.77711
C         62.26036        41.39911        -0.65566
C         61.12543        42.06438        -1.31691
C         62.37673        44.17911        -1.42458
C         61.13761        43.45667        -1.50167
C         62.41988        45.57600        -1.56965
C         61.19366        46.33160        -1.67827
C         62.42258        48.47815        -1.79130
C         61.23611        47.79619        -1.72908
C         62.52351        49.97126        -2.11518
C         61.21372        50.72403        -2.10013
C         62.40163        52.86410        -1.69515
C         61.21028        52.08796        -2.08741
C         62.36179        54.28357        -1.62726
C         61.27965        55.07757        -2.33324
C         62.24545        57.18781        -1.30716
C         61.11355        56.49333        -1.83362
C         62.24524        58.63524        -1.30105
C         61.11795        59.32033        -1.82868
C         62.39196        61.51846        -1.62433
C         61.20650        60.78121        -2.21004
C         62.41003        62.90992        -1.62940
C         61.14383        63.68598        -1.68010
C         62.53756        65.76074        -2.15437
C         61.17161        65.11441        -2.01721
C         62.54075        67.24398        -1.91379
C         64.69508        35.54701        -0.12425
C         63.37064        34.92788         0.08444
C         64.71682        37.05854        -0.21526
C         63.43085        37.80600        -0.22889
C         64.65607        39.96448         0.07890
C         63.43099        39.17864        -0.21884
C         64.73280        41.39299        -0.33261
C         63.59075        42.03438        -0.75557
C         64.92793        44.17296        -1.07316
C         63.62644        43.40426        -1.29287
C         64.83860        45.63517        -1.06844
C         63.67885        46.28450        -1.42919
C         64.97339        48.53024        -1.50880
C         63.72279        47.71185        -1.93395
C         64.96499        50.03501        -1.47299
C         63.58708        50.65466        -1.24272
C         64.68536        52.88184        -0.77140
C         63.56347        52.16975        -1.30470
C         64.57247        54.30049        -0.56669
C         63.44061        55.00756        -1.03865
C         64.39439        57.14977        -0.08017
C         63.36176        56.44453        -0.85162
C         64.43089        58.69931        -0.11619
C         63.39805        59.37728        -0.90128
C         64.70701        61.45692        -0.70231
C         63.52109        60.77288        -1.12910
C         64.89361        62.90508        -1.09705
C         63.59606        63.64704        -1.30948
C         64.70234        65.76230        -0.77187
C         63.60431        65.03409        -1.35627
C         64.72177        67.15974        -0.79088
C         63.59254        67.87528        -1.34677
C         67.18056        32.79442         0.60677
C         65.97398        33.46960         0.43560
C         67.16427        35.59772         0.36790
C         65.95202        34.86143         0.26899
C         67.15258        37.04991         0.28539
C         65.97789        37.74566         0.12442
C         67.21913        39.95834         0.28923
C         65.93927        39.21736         0.27626
C         67.19090        41.40723         0.20935
C         66.00797        42.09145        -0.20783
C         67.22148        44.23878        -0.09158
C         66.06005        43.48911        -0.42410
C         67.20379        45.67565        -0.07515
C         65.96014        46.38749        -0.46061
C         67.21722        48.61353        -0.24349
C         66.01299        47.86775        -0.64592
C         66.92082        50.03190         0.16362
C         66.21101        50.80248        -0.98613
C         67.08766        52.96640        -0.08348
C         65.91927        52.21504        -0.55139
C         66.89050        54.29844         0.52762
C         65.60819        55.01052         0.20883
C         66.78273        57.17355         0.68888
C         65.63913        56.47369         0.28150
C         66.82142        58.62087         0.57828
C         65.73111        59.35456         0.12480
C         66.96515        61.52344         0.29034
C         65.79589        60.78050        -0.13112
C         66.92851        62.91949         0.40600
C         65.83667        63.65530        -0.18901
C         66.57095        65.76834         0.93748
C         65.73391        65.02281        -0.06936
C         66.78952        67.22316         0.59608
C         65.84493        67.89135        -0.21490
C         67.02956        69.97957         0.16823
C         66.01339        69.27152        -0.45710
C         69.63096        31.30323         1.05915
C         69.72070        32.76756         0.73420
C         68.38832        33.49632         0.68750
C         69.61510        35.65005         0.92538
C         68.38509        34.90970         0.63589
C         69.64524        37.06141         0.85006
C         68.47736        37.78676         0.20952
C         69.56461        40.00624         0.96360
C         68.37003        39.25967         0.54447
C         69.61606        41.45355         0.71354
C         68.40108        42.13279         0.38140
C         69.60112        44.29099         0.57826
C         68.41002        43.55694         0.28671
C         69.55643        45.71946         0.62650
C         68.32045        46.39428         0.33964
C         69.49288        48.57379         0.85122
C         68.17521        47.86188         0.67899
C         69.43795        50.04500         0.98951
C         68.18234        50.76538         0.61947
C         69.33972        52.93856         1.19942
C         68.32696        52.23403         0.36584
C         69.18019        54.32381         1.47938
C         68.06240        55.05969         1.01469
C         69.11598        57.18634         1.66007
C         67.97900        56.46214         1.11218
C         69.15633        58.60008         1.57323
C         68.19994        59.25284         0.58741
C         69.24103        61.53097         1.45712
C         68.18798        60.78215         0.64543
C         69.03432        62.96114         1.73876
C         67.95690        63.65649         1.12680
C         68.84212        65.78356         2.01407
C         67.84238        65.05268         1.30976
C         68.81940        67.22318         2.04307
C         67.82800        67.93953         1.23839
C         68.88510        70.14990         1.83984
C         67.92153        69.34441         1.04790
C         69.27760        71.49759         1.40690
C         71.50115        31.43949         2.60276
C         70.50548        30.69322         1.90899
C         71.59266        32.81883         2.42983
C         70.71348        33.51294         1.58747
C         71.90542        35.67828         1.80257
C         70.75132        34.94646         1.43904
C         71.94528        37.05542         1.66266
C         70.82476        37.76243         1.18638
C         72.08285        40.02750         1.04750
C         70.85152        39.25391         1.23525
C         72.05216        41.38731         0.96928
C         70.82294        42.14417         0.87719
C         71.96848        44.35304         1.14823
C         70.81797        43.59435         0.85554
C         71.92295        45.74230         1.20119
C         70.73223        46.45387         0.96457
C         71.85664        48.69926         1.43425
C         70.67936        47.91549         1.04640
C         71.87614        50.04786         1.45740
C         70.72638        50.85443         0.90361
C         71.64078        53.02090         1.99688
C         70.53963        52.26095         1.46855
C         71.49599        54.31546         2.39131
C         70.13926        54.97430         2.44063
C         71.17298        57.20713         2.95642
C         70.15676        56.48231         2.32223
C         71.17521        58.59418         2.93990
C         70.17820        59.31929         2.24341
C         70.96734        61.48441         3.20102
C         70.16962        60.76931         2.30230
C         70.90676        62.87441         3.30329
C         69.94478        63.63501         2.58787
C         70.85122        65.80756         3.41134
C         69.88550        65.07525         2.68465
C         70.82097        67.18878         3.43641
C         69.82669        67.91615         2.74182
C         71.09692        70.11762         3.12056
C         69.86293        69.40320         2.75927
C         71.26857        71.43048         2.81435
C         70.35400        72.12574         1.94859
O         65.81714        54.31204         1.51712
O         56.94697        41.88674        -0.00341
O         63.87015        57.97403         1.02134
O         64.58477        43.58677        -2.38079
O         57.85073        50.24041        -3.56981
O         60.30554        63.35441        -0.51040
O         69.39219        61.29990        -0.01452
O         58.03430        58.94151        -3.74415
O         59.96065        53.53256        -3.71822
O         46.75213        50.51507        -0.64378
O         70.00480        39.70177         2.35361
O         68.64577        70.02340         3.28457
O         55.35923        46.13687        -3.19092
O         68.26519        52.79864        -0.96565
O         55.71073        51.46077        -3.03777
O         50.10237        45.96095        -1.47939
O         64.83694        36.21828        -1.42559
O         61.92809        40.90671         0.70377
O         51.27185        43.79138        -1.71106
O         65.13486        39.66927         1.44479
O         55.29920        43.53518        -2.95120
O         68.50359        50.50414         2.02429
O         49.51431        55.79478         2.47679
O         65.35893        47.26603         0.60221
O         53.69544        57.98381         0.86258
O         65.35664        49.32597        -2.67662
O         51.66512        56.93846         1.86608
O         59.30786        41.52930        -2.93353
O         45.30401        52.70631         3.05616
O         50.02206        52.32882         1.83436
O         63.85031        47.48224        -3.36964
H         63.98615        48.37458        -3.77575
O         61.48541        60.78107        -3.66356
H         60.78773        60.24640        -4.10193
O         67.17899        50.81964        -2.04647
H         66.74411        51.12418        -2.86941
O         62.95615        50.06164        -3.50130
H         62.16808        49.82767        -4.05105
O         45.42271        54.63466        -0.08575
H         45.32870        55.58156        -0.32300
O         60.25361        49.48999        -3.87262
H         59.37511        49.51782        -4.32866
O         67.53401        47.88657         2.00894
H         66.64116        47.47083         1.87509
O         63.26597        50.30017         0.13313
H         64.08711        50.36299         0.68211
O         65.53606        62.87142        -2.42473
H         64.92869        62.39613        -3.03156
O         59.81966        49.08634        -0.26716
H         60.01344        48.34818         0.34768
O         65.75669        65.77306         2.17415
H         66.23902        66.31114         2.83823
O         52.86119        48.28761         1.09360
H         53.59571        48.88789         1.36897
O         70.23450        32.84540        -0.65447
H         71.10480        32.39299        -0.66394
O         70.97933        51.02547        -0.52498
H         71.77658        51.58479        -0.63173
O         62.91562        65.56842        -3.56425
H         63.83560        65.89187        -3.66866
O         49.27161        48.60856        -1.74615
H         49.25309        47.68314        -2.08077
O         68.80278        37.79206        -1.23332
H         68.77090        36.86186        -1.54541
O         49.80082        48.05912         1.83082
H         49.26286        47.67489         2.55412
O         58.66895        38.93095        -3.18873
H         58.84930        39.83139        -3.55432
O         69.61914        54.69536         3.79806
H         69.48020        53.72603         3.86369
O         53.01292        56.59714        -2.42720
H         53.63411        56.34969        -3.15495
O         61.80942        55.27421        -3.68415
H         61.41570        54.55768        -4.24026
O         54.42803        50.61841         0.95568
H         53.82655        51.20128         1.47024
O         57.42810        62.98961        -4.22260
H         56.69043        62.42769        -4.54221
O         46.99540        55.02991         3.22022
H         47.91278        55.30823         3.45536
O         65.95612        50.05643         1.24684
H         66.38549        49.56902         1.99377
O         53.93450        43.99045         0.42238
H         54.56607        43.33923         0.79715
O         68.74284        58.90653        -0.72896
H         69.42119        59.59237        -0.93416
O         42.61993        48.65370         0.30726
H         43.37078        49.06456        -0.17295
O         55.64732        56.37995        -3.60840
H         56.08153        57.11410        -4.09629
H         38.17490        49.27945         3.39093
H         36.10716        50.53601         3.82174
H         38.16617        54.26128         3.17257
H         36.10049        53.03738         3.71062
H         39.82166        48.34732         3.31759
H         39.79736        55.19409         2.86853
H         41.69107        47.04961         2.51612
H         41.87603        56.36637         2.42831
H         45.63106        45.11644         2.79458
H         43.49312        46.29628         2.88778
H         45.63821        58.42651         1.69565
H         43.59533        57.26973         2.33549
H         47.14531        44.03686         2.37075
H         47.14388        59.22499         0.65333
H         48.84350        42.56798         1.37106
H         49.18145        60.42817         0.20463
H         52.49992        40.40588        -0.33818
H         50.67843        41.56916         0.74757
H         52.62383        62.56699        -1.00929
H         50.78592        61.43939         0.04658
H         53.95617        39.40169        -1.17530
H         54.14036        63.49594        -1.64645
H         56.01825        38.16552        -1.42761
H         56.08193        64.71884        -2.39794
H         59.62698        35.99101        -0.41307
H         57.67167        37.08837        -1.29090
H         59.99978        66.83195        -2.53442
H         57.88641        65.64259        -2.78369
H         61.26936        35.10011         0.05864
H         61.70396        67.83971        -2.30519
H         63.31351        33.86414         0.35547
H         63.56295        68.96984        -1.25077
H         67.16881        31.69838         0.66813
H         65.04473        32.88866         0.36544
H         67.10182        71.06170        -0.00348
H         65.32730        69.80845        -1.12489
H         68.90897        30.69172         0.49915
H         68.69855        72.00045         0.61957
H         72.18685        30.92437         3.28830
H         70.44432        29.60753         2.07353
H         72.34371        33.37448         3.00989
H         72.79365        35.15135         2.17645
H         72.85458        37.60356         1.94532
H         73.04058        39.49627         0.94680
H         73.00534        41.92633         0.87222
H         72.92076        43.84994         1.36362
H         72.84807        46.28074         1.44577
H         72.75102        48.15930         1.77617
H         72.79247        50.56566         1.77858
H         72.63452        52.55226         2.05352
H         72.36744        54.85205         2.79277
H         71.96779        56.68205         3.50290
H         71.98496        59.12470         3.45647
H         71.67624        60.95425         3.85043
H         71.59440        63.37189         3.99888
H         71.65031        65.28778         3.95534
H         71.58869        67.72115         4.01249
H         71.90137        69.58024         3.64174
H         72.18291        71.95083         3.13294
H         70.60566        73.14924         1.63666
