         244
 CSIRO Nanostructure Databank - Neutral Graphene Oxide Data Set
C          1.41716         2.00854        -0.53336
C          1.33926         3.37963        -0.25824
C          2.60215         1.32880        -0.32111
C          2.44795         4.08073         0.26006
C          1.21089         6.31988         0.03226
C          1.20920         7.67682         0.06598
C          2.29892         5.52446         0.61396
C          2.35239         8.45356         0.49828
C          1.16713        10.61257        -0.07805
C          1.22083        11.97826        -0.43237
C          2.32834         9.92321         0.36982
C          2.32344        12.76497        -0.18094
C          1.17875        14.97321        -0.74759
C          1.18727        16.31190        -0.74700
C          2.44784        14.15142        -0.77306
C          2.42918        17.13778        -0.51510
C          2.56927        18.31902        -1.44402
C          3.75566         2.01258         0.16852
C          3.66655         3.41488         0.47617
C          4.95988         1.29221         0.28299
C          4.82231         4.10679         1.20465
C          3.55002         6.32031         1.03307
C          3.51117         7.78493         0.85772
C          4.85372         5.61846         1.00228
C          4.76252         8.51714         1.13627
C          3.48534        10.67400         0.59704
C          3.45116        12.18425         0.62759
C          4.73279        10.02430         1.01019
C          4.79322        12.86026         0.39612
C          3.64181        14.93509        -0.26556
C          3.68679        16.30501        -0.45858
C          4.82497        14.21364         0.12929
C          4.95573        16.99751        -0.55587
C          3.77042        18.89227        -1.66145
C          5.00773        18.31912        -1.14570
C          6.23037         1.96918         0.52224
C          6.18166         3.43592         0.90533
C          7.44394         1.40226        -0.09481
C          7.31808         4.27057         0.47496
C          6.03408         6.33047         0.92557
C          6.04823         7.78737         0.97807
C          7.30455         5.65776         0.64485
C          7.22796         8.49349         0.92132
C          5.99768        10.74742         0.77467
C          6.02724        12.11696         0.60021
C          7.23397         9.95779         0.71493
C          7.30650        12.82121         0.51673
C          6.05832        15.01810         0.48155
C          6.13626        16.33542        -0.24170
C          7.32662        14.22288         0.36386
C          7.40025        16.99698        -0.35578
C          6.22240        18.96796        -1.27615
C          7.44787        18.36201        -0.84390
C          8.54381         2.17518        -0.35502
C          8.44081         3.64190        -0.20793
C          9.78907         1.63793        -0.84782
C          9.74401         4.46218        -0.33177
C          8.52744         6.40316         0.58738
C          8.52441         7.83229         0.84966
C          9.75570         5.77946         0.29114
C          9.71446         8.51946         0.97119
C          8.53904        10.68321         0.76646
C          8.53570        12.15373         0.72386
C          9.73439         9.97631         1.34202
C          9.79186        12.79143         0.54808
C          8.54952        14.88154         0.13548
C          8.57695        16.32174         0.00142
C          9.72680        14.08829        -0.02322
C          9.78122        17.13166         0.27470
C          8.68395        18.99940        -0.97447
C          9.87983        18.42455        -0.44982
C         10.95665         2.37094        -0.91024
C         11.00865         3.75372        -0.52640
C         12.23596         1.68040        -1.30780
C         12.20854         4.46846        -0.40477
C         11.00914         6.43540         0.46095
C         10.99116         7.75746         1.19452
C         12.19831         5.82707         0.05572
C         12.25304         8.57720         1.05408
C         11.03459        10.71815         1.07424
C         11.05365        12.09670         0.87370
C         12.25565         9.94003         1.17971
C         12.32467        12.84080         1.01412
C         11.19925        15.16086         1.52148
C         11.06386        16.55638         0.92336
C         12.37048        14.32582         1.05839
C         12.31872        17.19488         0.52528
C         11.09320        19.09340        -0.47866
C         12.31864        18.47785        -0.05083
C         13.43856         2.58417        -1.38430
C         13.45540         3.84831        -0.85522
C         14.63101         2.02491        -2.11041
C         14.71513         4.58303        -0.70113
C         13.45464         6.66966        -0.05440
C         13.52978         7.76171         1.02713
C         14.73285         5.85833        -0.13123
C         14.77718         8.59544         0.84958
C         13.53099        10.67287         1.51298
C         13.52057        12.14224         1.13107
C         14.77892         9.92818         1.11336
C         14.80431        12.81744         1.11106
C         13.54625        15.01449         0.94671
C         13.61073        16.53756         0.94543
C         14.87396        14.32930         1.14226
C         14.81872        17.07474         0.19185
C         13.55273        19.14194        -0.30956
C         14.78620        18.45914        -0.23145
C         15.94145         2.65552        -1.72327
C         15.95270         3.95076        -1.06248
C         17.08888         1.98537        -2.02442
C         17.17081         4.55699        -0.70929
C         15.97346         6.48642         0.19907
C         16.01807         7.85595         0.59846
C         17.21012         5.79737        -0.00207
C         17.25923         8.50211         0.68897
C         16.08543        10.65262         1.33524
C         15.99216        12.13945         1.08639
C         17.21554        10.00647         0.52965
C         17.29979        12.89671         1.15694
C         15.92624        14.82272         0.13532
C         15.96438        16.32654         0.00080
C         17.26546        14.21588         0.42562
C         17.18408        16.93539        -0.47005
C         15.97161        19.06834        -0.68568
C         17.18261        18.34411        -0.77134
C         18.40417         2.60387        -1.85542
C         18.44171         3.96296        -1.15705
C         19.60911         1.76117        -1.78690
C         19.65455         4.33055        -0.41133
C         18.45832         6.38127         0.42161
C         18.48265         7.77075         0.73569
C         19.63969         5.49444         0.40346
C         19.71456         8.54352         1.00822
C         18.53086        10.71803         0.71687
C         18.51928        12.07914         0.78812
C         19.77144         9.95607         0.80616
C         19.77319        12.86001         0.70380
C         18.43511        14.82200        -0.05015
C         18.38811        16.19967        -0.55602
C         19.68587        14.16734         0.03107
C         19.60508        16.84748        -0.92544
C         18.38603        18.97334        -1.15233
C         19.59185        18.25489        -1.21776
C         20.73330         2.21170        -1.18673
C         20.78037         3.47004        -0.46059
C         21.91685         3.75938         0.31997
C         20.77649         5.68586         1.21797
C         20.86968         7.95719         1.56329
C         21.90233         4.85185         1.17614
C         22.09736         8.62097         1.65265
C         21.01337        10.64158         0.89686
C         21.06949        12.12390         0.73293
C         22.18097         9.95154         1.24921
C         22.24033        12.78396         0.09800
C         20.81654        14.62587        -0.85271
C         20.84984        16.13758        -0.98807
C         22.13530        13.95449        -0.54727
C         22.01072        16.82023        -1.31639
C         20.81390        18.91329        -1.55440
C         21.99481        18.21041        -1.58866
O          4.69070         9.36111         2.34672
O         18.58614         3.85615        -2.61219
O          8.80772         4.33562        -1.45218
O         20.61322        12.84537         1.93869
O          8.05762        10.19805        -0.52773
O         10.54155        14.82021         2.49202
O         20.79442         6.69791         2.17879
O          2.58244         5.82049         2.00988
O          6.51549         2.43981         1.93630
O         10.10840        17.34967         1.70257
O         16.39938        10.51290         2.75398
H         15.56128        10.70016         3.24261
O         13.66468         7.07726         2.31220
H         14.02013         7.72529         2.95788
O          5.89457        15.34078         1.91048
H          6.70373        15.81707         2.19652
O         10.69950        14.55291        -0.86341
H         11.37980        13.86151        -1.00266
O         16.84402        10.22318        -0.86912
H         17.49181         9.75087        -1.43287
O         10.96575         7.40781         2.63726
H         11.85130         7.00444         2.82875
O          9.59043        10.01338         2.80125
H         10.07672         9.23182         3.15635
O          4.55445         3.92592         2.61843
H          5.08425         3.14340         2.90476
O         13.58050        10.70425         2.99731
H         12.83388        11.26490         3.30408
O         13.34746         7.39574        -1.31490
H         13.32584         6.74033        -2.04315
O         13.83382        16.96387         2.34836
H         12.97432        16.90379         2.82029
O         12.05183         0.96566        -2.54939
H         11.65553         1.58183        -3.19994
O         15.48574        14.30887        -1.16952
H         16.14980        14.58043        -1.83777
O         17.52668        13.18819         2.57387
H         17.40747        12.33574         3.05354
O          2.27932        17.71026         0.82838
H          2.38258        16.97859         1.47350
O          3.13211        12.49471         2.04564
H          3.74075        11.96550         2.60639
O         15.29892        14.68597         2.47754
H         15.04794        15.62728         2.64837
O          2.73237        13.91105        -2.20002
H          2.80478        14.78635        -2.63665
O         14.72046         0.60892        -1.99230
H         13.88248         0.23424        -2.34593
O         20.45650        14.12850        -2.20310
H         19.72046        14.68726        -2.53293
H          0.53302         1.47829        -0.91333
H          0.38271         3.89424        -0.41546
H          2.67624         0.25343        -0.53661
H          0.37291         5.80628        -0.45913
H          0.34197         8.20037        -0.35716
H          0.22938        10.07216        -0.25724
H          0.35531        12.40206        -0.96307
H          0.22103        14.44077        -0.85723
H          0.23386        16.86272        -0.78923
H          1.65394        18.77164        -1.85456
H          4.98228         0.24247        -0.04594
H          3.84620        19.80539        -2.27222
H          7.46042         0.32346        -0.31279
H          6.25795        19.97809        -1.71147
H          9.82164         0.56942        -1.10896
H          8.73972        19.98859        -1.45301
H         12.47263         0.89064        -0.53836
H         11.14399        20.09859        -0.92324
H         14.45994         2.27652        -3.21242
H         13.53287        20.16633        -0.70896
H         17.02736         0.95313        -2.39960
H         15.95378        20.12596        -0.98727
H         19.56783         0.75029        -2.21870
H         18.38559        20.05144        -1.37079
H         21.63087         1.57641        -1.14971
H         22.78728         3.08942         0.28454
H         22.75187         5.06427         1.83764
H         22.96733         8.10171         2.07392
H         23.13743        10.48686         1.32033
H         23.22853        12.30943         0.20451
H         23.04116        14.38884        -0.99538
H         22.97067        16.29063        -1.37941
H         20.79479        19.98984        -1.77653
H         22.93632        18.71764        -1.84091
