         595
 CSIRO Nanostructure Databank - Neutral Graphene Oxide Data Set
C         23.00128        69.64594         1.61832
C         22.94905        71.05180         1.76248
C         21.90875        71.78036         2.35881
C         23.01698        74.02955         2.59156
C         21.91580        73.20279         2.51429
C         25.37104        65.47634         0.27560
C         25.35451        66.87883         0.45373
C         24.16277        67.58154         0.86581
C         25.33722        69.75093         0.69008
C         24.11782        68.96411         1.03983
C         25.41241        71.11820         1.30175
C         24.06701        71.77997         1.07880
C         25.48422        73.98344         2.13867
C         24.35942        73.49784         2.80850
C         27.83936        61.26182        -0.55884
C         27.74606        62.66302        -0.62961
C         26.58245        63.36204        -0.26256
C         27.74477        65.53666        -0.31917
C         26.54264        64.79015        -0.12976
C         27.77124        66.90351         0.00008
C         26.58956        67.58321         0.33048
C         27.92422        69.75168         0.68455
C         26.62946        69.05175         0.44237
C         27.95401        71.15008         1.07140
C         26.71248        71.80976         1.54772
C         27.89128        73.97130         1.57956
C         26.72168        73.28111         1.81505
C         30.42733        57.05265        -0.22237
C         30.35069        58.46250        -0.45615
C         29.12218        59.15738        -0.49282
C         30.30228        61.26462        -0.93697
C         29.07442        60.55424        -0.69447
C         30.24775        62.70287        -1.27646
C         28.91956        63.41930        -1.13914
C         30.23222        65.64247        -1.03033
C         28.92019        64.90945        -0.97050
C         30.32928        66.96649        -0.32757
C         29.06320        67.61866         0.12537
C         30.40645        69.71077         0.52427
C         29.08464        69.06749         0.40374
C         30.41506        71.20120         0.81439
C         29.12788        71.88076         1.02583
C         30.32511        74.01956         1.11609
C         29.13296        73.31822         1.22807
C         33.02981        53.00205         1.04627
C         32.97566        54.33436         0.59850
C         31.66291        54.88616         0.07427
C         32.85961        57.13801        -0.16774
C         31.63957        56.39469        -0.08563
C         32.80143        58.51366        -0.45755
C         31.56880        59.19463        -0.61907
C         32.77554        61.33587        -1.15314
C         31.53336        60.60735        -0.88573
C         32.74674        62.78878        -1.31049
C         31.51323        63.48226        -1.24767
C         32.71856        65.62029        -1.14986
C         31.50751        64.88933        -1.17228
C         32.68553        67.11367        -1.16509
C         31.51623        67.81041        -0.60023
C         32.77762        69.93367        -0.34971
C         31.57311        69.12111        -0.18428
C         32.77713        71.36115        -0.00399
C         31.60384        71.99607         0.47253
C         32.77394        74.12396         0.67235
C         31.57245        73.39429         0.73962
C         35.59605        48.84644         2.07037
C         35.44951        50.29358         2.21430
C         34.27443        51.01171         1.73755
C         35.38958        53.26282         1.81654
C         34.20948        52.38951         1.56620
C         35.36129        54.64303         1.23439
C         34.13693        55.11791         0.55871
C         35.34591        57.11986        -0.17806
C         34.14080        56.46844         0.05353
C         35.34252        58.56529        -0.42369
C         34.03974        59.30641        -0.52196
C         35.23618        61.33269        -1.49961
C         33.98114        60.66439        -1.10726
C         35.23251        62.84292        -1.57501
C         33.95390        63.53599        -1.34380
C         35.24247        65.67218        -1.08806
C         33.94777        64.94177        -1.25153
C         35.25510        67.17143        -0.95893
C         33.96654        67.89839        -1.15187
C         35.19877        70.05821        -0.99852
C         33.94212        69.31832        -0.76516
C         35.19484        71.54181        -0.65882
C         33.96025        72.12492        -0.11063
C         35.23477        74.18309         0.35883
C         33.99075        73.49181         0.31122
C         38.08679        44.64119         2.62393
C         38.05707        46.04393         2.60475
C         36.85542        46.78190         2.47771
C         38.03325        49.01488         2.51679
C         36.78511        48.20090         2.40137
C         38.04310        50.42201         2.07598
C         36.79036        51.14143         2.28439
C         37.99686        53.25731         1.55348
C         36.74827        52.60585         2.02530
C         37.96489        54.61640         1.18765
C         36.67215        55.33076         0.97228
C         37.86742        57.32643         0.12993
C         36.68483        56.40367        -0.10815
C         37.83180        58.66053        -0.26550
C         36.60232        59.21048        -0.88587
C         37.69520        61.51082        -0.83444
C         36.55917        60.63037        -1.31991
C         37.70788        62.90460        -1.39554
C         36.51901        63.58954        -1.48263
C         37.72893        65.75501        -1.40084
C         36.52170        65.02290        -1.41393
C         37.72720        67.18966        -1.19726
C         36.52234        67.90888        -1.07895
C         37.67746        70.07224        -0.88113
C         36.49923        69.34589        -0.99828
C         37.68319        71.49376        -0.61457
C         36.48437        72.18900        -0.39137
C         37.70818        74.20385         0.27949
C         36.47417        73.54636         0.08723
C         40.51879        40.29189         2.46004
C         40.52694        41.69150         2.54557
C         39.33117        42.44706         2.59278
C         40.49520        44.55485         2.20246
C         39.30688        43.87729         2.51870
C         40.56269        46.01549         2.22633
C         39.34168        46.78553         2.58252
C         40.49851        48.96912         1.80932
C         39.35355        48.27715         2.42457
C         40.45951        50.33721         1.61464
C         39.22330        51.08675         1.74848
C         40.40890        53.20487         1.08785
C         39.21541        52.52430         1.46938
C         40.40973        54.63443         1.01285
C         39.17020        55.34403         1.01868
C         40.04842        57.69811         1.08748
C         39.04352        56.78801         0.74768
C         40.11023        59.01411         0.54269
C         38.98361        59.49455        -0.16820
C         40.23510        61.50860        -0.78371
C         39.02511        60.81706        -0.70355
C         40.27356        62.82992        -1.45149
C         38.97856        63.60255        -1.64857
C         40.19292        65.80214        -1.63491
C         38.99239        65.08353        -1.59918
C         40.16242        67.23714        -1.48019
C         38.97268        67.90129        -1.21542
C         40.11990        70.17411        -1.37507
C         38.99887        69.34289        -0.74458
C         40.16531        71.54736        -0.74144
C         38.94170        72.18548        -0.44572
C         40.17167        74.21126         0.20253
C         38.93870        73.55099         0.01506
C         42.96531        35.88283         2.36949
C         42.96246        37.30701         2.36850
C         41.78865        38.04450         2.49294
C         43.08639        40.27293         2.47359
C         41.73660        39.50482         2.64862
C         43.05667        41.69148         2.10346
C         41.83398        42.41194         2.50323
C         42.93994        44.53099         1.50794
C         41.80493        43.89993         2.21851
C         42.85100        45.91714         1.09524
C         41.61308        46.66011         1.38895
C         42.83857        48.78617         0.74754
C         41.59533        48.15999         1.21169
C         42.94932        50.24486         0.81696
C         41.70754        51.05242         1.25202
C         42.77198        53.03842         0.26343
C         41.64348        52.46020         0.84777
C         42.74203        54.50447         0.06531
C         41.70157        55.28232         0.79872
C         43.11315        57.33985         0.68194
C         41.97311        56.58121         1.16207
C         43.20095        58.70374         0.73483
C         41.26746        59.84086         0.60175
C         42.72787        61.68752        -0.32588
C         41.43624        60.97470        -0.20121
C         42.74590        62.98117        -0.79265
C         41.55682        63.60049        -1.42256
C         42.76297        65.84789        -1.39569
C         41.50842        65.09854        -1.65783
C         42.74428        67.28012        -1.69277
C         41.40980        68.02292        -1.69550
C         42.64705        70.14238        -1.26014
C         41.44754        69.45630        -1.36950
C         42.64885        71.54626        -0.82102
C         41.39483        72.20182        -0.53664
C         42.62967        74.21576         0.19693
C         41.40146        73.56016        -0.04367
C         45.41784        33.03098         2.17771
C         44.19039        33.73212         2.28117
C         45.27760        35.79286         1.46138
C         44.11759        35.12006         2.08029
C         45.39790        37.24507         1.55163
C         44.27631        37.98508         2.18985
C         45.34488        40.14800         1.31161
C         44.30370        39.48207         2.14406
C         45.38787        41.63244         1.26188
C         44.16744        42.36184         1.59079
C         45.14240        44.35667         0.42432
C         44.07553        43.77422         1.25852
C         45.02521        45.79634        -0.05006
C         43.87585        46.57921         0.42289
C         45.06471        48.68317        -0.31745
C         43.89585        48.02249         0.25336
C         45.08431        50.09063        -0.48524
C         44.00458        50.89549         0.02319
C         45.11771        52.95587        -0.70696
C         43.95230        52.29381        -0.12991
C         45.21870        54.40130        -0.67071
C         44.01135        55.18502        -0.31979
C         45.30471        57.29002        -0.54855
C         44.31198        56.54154         0.27383
C         45.15044        58.74316        -0.87303
C         44.24487        59.52064         0.07827
C         45.17781        61.64591        -1.04677
C         44.06619        60.98726        -0.25624
C         45.22383        63.01175        -1.08641
C         44.01729        63.79594        -0.62386
C         45.21226        65.91444        -1.36865
C         43.96801        65.20704        -1.17939
C         45.21600        67.32917        -1.48565
C         43.96666        68.05114        -1.45260
C         45.16968        70.19039        -1.43834
C         43.90919        69.43173        -1.37869
C         45.12278        71.64798        -1.03037
C         43.84316        72.21639        -0.56450
C         45.08153        74.14039         0.39690
C         43.86773        73.55075         0.00977
C         46.60210        33.63019         1.80735
C         47.84291        35.77958         1.13599
C         46.62464        34.99220         1.28515
C         47.79606        37.15689         0.92559
C         46.56407        37.88319         1.19253
C         47.86716        40.10371         0.96179
C         46.55397        39.35263         0.96162
C         47.71888        41.49858         0.38820
C         46.49802        42.22777         0.69474
C         47.56685        44.30484        -0.35721
C         46.47604        43.68517         0.43582
C         47.33812        45.64236        -1.00621
C         46.22231        46.51454        -0.53447
C         47.47902        48.59739        -1.14009
C         46.20549        47.87737        -0.72705
C         47.27248        50.00916        -1.67097
C         46.20322        50.75758        -1.16513
C         47.32044        52.95118        -1.82733
C         46.18001        52.21048        -1.21967
C         47.51917        54.39375        -1.53851
C         46.37684        55.09659        -0.98955
C         47.58122        57.26168        -1.36644
C         46.40134        56.56297        -0.99321
C         47.57030        58.68125        -1.45201
C         46.43850        59.42463        -1.18826
C         47.67257        61.57829        -1.44177
C         46.34525        60.86484        -1.63437
C         47.67949        63.03188        -1.38942
C         46.45321        63.74988        -1.35631
C         47.68709        65.86207        -1.65464
C         46.45894        65.17117        -1.43259
C         47.65973        67.32860        -2.07473
C         46.43650        68.06195        -1.58107
C         47.68852        70.15401        -1.20216
C         46.46084        69.45946        -1.43558
C         47.70415        71.56883        -0.78908
C         46.39816        72.31635        -0.63506
C         47.59876        74.06773         0.66685
C         46.31785        73.30713         0.51258
C         48.96035        37.89289         0.51312
C         50.08537        39.97050        -0.18451
C         48.99046        39.28582         0.36686
C         50.03083        41.36723        -0.46642
C         48.77314        42.08271        -0.27401
C         49.89056        44.13152        -1.28520
C         48.59965        43.39170        -1.01348
C         49.80432        45.49150        -1.82405
C         48.51236        46.25801        -1.67751
C         49.80090        48.42810        -2.24150
C         48.50577        47.74489        -1.90598
C         49.78607        49.94092        -2.31828
C         48.47290        50.67335        -2.23742
C         49.85181        52.83961        -2.49664
C         48.51513        52.17056        -2.29295
C         49.88716        54.35798        -2.37012
C         48.68111        55.05502        -1.86801
C         50.01346        57.24355        -2.00213
C         48.86119        56.48119        -1.39872
C         50.02538        58.60817        -1.96681
C         48.74644        59.41590        -2.07438
C         50.13776        61.48134        -1.39621
C         48.82519        60.84102        -1.55986
C         50.16569        63.01274        -1.33886
C         48.89751        63.74625        -1.48639
C         50.18862        65.85025        -1.95150
C         48.89455        65.14710        -1.69920
C         50.24986        67.33660        -1.74192
C         48.95810        68.09730        -1.78259
C         50.10898        70.01694        -0.66266
C         48.91364        69.44203        -1.16020
C         50.08663        71.36854        -0.11793
C         48.89338        72.09298        -0.09645
C         50.04978        74.06408         0.83964
C         48.83239        73.43438         0.45870
C         51.15361        42.05764        -0.92808
C         52.34182        44.17649        -1.46600
C         51.12190        43.45801        -1.26200
C         52.37051        45.55582        -1.70734
C         51.11730        46.25326        -2.07156
C         52.27089        48.42520        -1.84379
C         51.10394        47.73402        -2.06489
C         52.28304        49.90331        -1.67487
C         51.01841        50.68727        -1.90917
C         52.32661        52.79725        -2.05578
C         51.11162        52.13257        -2.18930
C         52.38708        54.25544        -2.14680
C         51.20885        54.99187        -2.19606
C         52.56626        57.13251        -2.39893
C         51.22975        56.45749        -2.32731
C         52.58812        58.56578        -1.98079
C         51.31403        59.32032        -1.84140
C         52.60167        61.46281        -1.76574
C         51.38084        60.79061        -1.76400
C         52.61295        62.91319        -1.71134
C         51.45071        63.64296        -1.63625
C         52.71534        65.79757        -1.43740
C         51.47870        65.10212        -1.86821
C         52.65953        67.16308        -1.00143
C         51.42324        67.92774        -1.05698
C         52.50430        69.86554         0.03864
C         51.32355        69.24122        -0.59030
C         52.53123        71.32808         0.27610
C         51.30021        72.01277         0.32789
C         52.50109        73.99589         1.17387
C         51.28185        73.38162         0.76540
C         53.55567        46.31513        -1.61532
C         54.73169        48.46836        -1.57859
C         53.54367        47.72796        -1.69120
C         54.77219        49.89594        -1.62712
C         53.55344        50.64268        -1.73578
C         54.80951        52.74282        -1.72033
C         53.56182        52.04896        -1.82800
C         54.86538        54.17351        -1.77738
C         53.67766        54.92814        -2.03048
C         54.99930        57.00946        -1.88013
C         53.78078        56.33651        -2.12573
C         55.11905        58.47778        -2.03724
C         53.85049        59.31570        -2.18244
C         55.10249        61.36469        -1.68391
C         53.86918        60.75116        -1.87522
C         55.18240        62.84508        -1.71062
C         53.90018        63.64427        -1.81223
C         55.10191        65.63164        -0.84533
C         53.90055        65.06228        -1.36570
C         55.07418        67.01246        -0.42105
C         53.85227        67.75167        -0.55252
C         55.07597        69.89032        -0.02391
C         53.80436        69.11686        -0.00499
C         55.03933        71.34429         0.32967
C         53.73495        71.98427         0.58874
C         54.95754        73.90515         1.59730
C         53.72384        73.32324         1.08359
C         55.98909        50.59024        -1.51756
C         57.25001        52.69574        -1.32853
C         56.02490        52.00491        -1.52440
C         57.30708        54.09892        -1.30272
C         56.10033        54.84801        -1.55128
C         57.38303        56.96213        -1.23273
C         56.16250        56.27055        -1.55975
C         57.39851        58.36811        -1.11021
C         56.29583        59.16993        -1.49825
C         57.46546        61.29227        -0.96208
C         56.29465        60.59459        -1.40431
C         57.51169        62.69533        -0.87078
C         56.37563        63.50637        -1.15032
C         57.40227        65.40636         0.06400
C         56.29983        64.86338        -0.75479
C         57.32246        66.81394         0.63291
C         56.20415        67.62459         0.17378
C         57.52046        69.74988         0.78240
C         56.34176        69.08941         0.17146
C         57.50335        71.12807         1.08806
C         56.30540        71.98071         0.85914
C         57.36812        73.86319         2.27708
C         56.15837        73.25891         1.59134
C         58.52108        54.79346        -1.03805
C         59.79972        56.86820        -0.64756
C         58.58233        56.19673        -0.96078
C         59.85383        58.25992        -0.43399
C         58.57785        59.01127        -0.49945
C         59.92005        61.17349        -0.22123
C         58.61364        60.51848        -0.43833
C         59.97960        62.56420        -0.15613
C         58.79116        63.35840        -0.52858
C         59.90942        65.39657         0.61354
C         58.74877        64.79498        -0.08103
C         59.85209        66.72561         1.01841
C         58.54954        67.46800         1.26386
C         59.87597        69.58327         1.43357
C         58.66788        68.96619         1.07024
C         59.88917        71.00125         1.66006
C         58.66652        71.74355         1.61826
C         59.86318        73.74343         2.33315
C         58.66965        73.12062         2.03407
C         61.03152        58.94956        -0.11154
C         62.27932        61.03820         0.38231
C         61.08502        60.37479         0.03786
C         62.32298        62.44320         0.57386
C         61.14745        63.22654         0.31820
C         62.28282        65.19444         1.23947
C         61.13329        64.62006         0.67157
C         62.22131        66.57489         1.72662
C         61.04167        67.39902         1.44254
C         62.36310        69.45671         1.76823
C         61.08807        68.79290         1.61286
C         62.36702        70.94152         1.74649
C         61.10098        71.66798         1.94190
C         62.33360        73.72127         2.56863
C         61.12136        73.05696         2.24659
C         63.50456        63.09356         1.02448
C         64.72861        65.13550         1.71405
C         63.51210        64.46141         1.34250
C         64.79751        66.50655         1.94937
C         63.53789        67.28678         2.03874
C         64.87835        69.38470         1.96951
C         63.55363        68.74253         1.86848
C         64.90732        70.87932         2.19482
C         63.65096        71.68101         2.04968
C         64.73912        73.65227         3.11593
C         63.58472        73.05290         2.61802
C         66.01071        67.18542         2.24553
C         67.22635        69.25777         2.80793
C         66.05519        68.58086         2.40711
C         67.25536        70.64347         3.11836
C         65.97686        71.38913         3.09209
C         67.22654        73.47506         3.77507
C         65.93117        72.86710         3.47669
C         68.38732        71.31238         3.58830
C         68.36082        72.70578         3.87384
O         56.95282        65.62680         1.44192
O         54.62690        58.94742        -3.34704
O         58.23466        59.70973         0.75040
O         40.34950        46.46699         3.61424
O         35.06147        71.06459        -2.05137
O         36.06916        50.76418         3.45880
O         59.07998        64.46543        -1.46789
O         38.88373        48.85376         3.68933
O         63.15269        71.59148         0.68048
O         65.32774        70.32946         0.92358
O         29.34240        65.64162        -2.18346
O         52.06135        58.75014        -0.62962
O         41.01783        47.24590         0.17720
O         23.88764        72.58774         0.18387
O         42.09830        43.37821         3.57003
O         50.38899        45.62940        -3.16632
O         51.85119        56.85656        -3.62542
O         36.78210        59.57975        -2.30061
O         25.83229        69.67409        -0.66912
O         44.73701        60.55366         1.00213
O         45.54982        39.64467        -0.06762
O         41.05381        57.27840         1.96538
O         29.38730        62.97847        -2.44351
O         54.70988        63.39486        -3.00009
O         45.10345        71.27001        -2.43771
O         42.27806        59.44459         1.48232
O         45.66282        35.22885         0.19347
O         42.55244        40.00627         3.77587
O         30.71551        70.19876         1.86807
O         49.85697        68.08815        -2.94771
O         51.41998        50.33350        -0.53907
O         47.51500        52.63218        -3.24984
O         65.51999        71.76353         4.41351
O         50.89855        65.46351        -3.17966
O         48.44068        59.56285        -3.45115
O         42.06982        67.64802        -2.94710
O         49.83674        53.68453        -3.67582
O         42.80818        50.77526         2.18521
O         36.02191        53.26484         3.11745
O         33.25647        67.65047        -2.41340
O         35.91314        55.66921         2.15178
O         62.68512        66.77933         3.11360
O         44.79587        38.77355         3.32452
O         35.25921        66.32594         0.25421
O         55.91093        72.12590        -0.55043
O         55.92287        69.61961        -1.15874
O         50.23377        62.20178        -0.11559
O         42.95225        55.03243        -1.30770
O         29.96061        66.89275         1.08698
O         39.66121        62.90910        -2.76759
O         47.43601        45.61745        -2.47089
O         41.80324        64.16233        -2.75333
O         49.10638        50.30844        -3.53804
O         47.58677        44.41349         1.09732
O         53.03618        69.17358         1.24701
O         34.80299        59.31054         0.75064
O         26.03388        71.01351         2.62551
O         47.22833        72.61870        -1.76049
O         44.67204        44.66353        -0.93082
O         48.86612        47.95949        -3.27977
O         46.09069        60.76068        -3.07695
H         46.93757        60.35106        -3.46551
O         44.16587        63.99540         0.82290
H         44.39247        63.12838         1.22529
O         37.29285        61.72969         0.57739
H         37.99280        62.24767         1.02844
O         35.16501        62.01025        -2.79329
O         57.49465        75.24593         1.92938
H         57.59135        75.30867         0.95692
O         48.06594        43.01241        -2.31270
H         47.86825        43.84528        -2.81149
O         39.29795        69.28058         0.68433
H         38.56949        68.79615         1.12694
O         36.90947        55.70246        -1.36578
H         37.05088        56.37001        -2.07047
O         47.48887        67.29490        -3.51765
H         48.38672        67.40974        -3.91397
O         44.98584        56.19846         1.54063
H         45.23073        57.03129         1.99734
O         48.18438        40.25649         2.38147
H         49.03914        40.73098         2.45254
O         44.40656        58.78535        -2.15576
H         44.88701        59.40386        -2.77396
O         48.19307        48.81674         0.13670
H         47.58294        49.27034         0.75779
O         58.35328        67.36242         2.71170
H         57.95312        66.47748         2.87914
O         24.39172        72.53616         3.74629
H         25.26593        72.07117         3.75108
O         31.36662        54.28124        -1.20206
H         32.03533        54.58745        -1.84857
O         46.16375        72.43385         1.71152
H         46.06171        73.02009         2.49135
O         39.75704        70.33532        -2.77268
H         40.51847        70.72487        -3.25143
O         49.27095        56.33727         0.02362
H         49.57422        57.21551         0.34220
H         22.88535        75.11418         2.46089
H         25.34331        74.94107         1.61191
H         27.91166        75.06060         1.73101
H         30.32776        75.10447         1.29838
H         32.77783        75.19225         0.93357
H         35.24164        75.23381         0.68491
H         37.71770        75.24207         0.64262
H         40.17707        75.25267         0.55668
H         42.62363        75.23932         0.59962
H         45.09209        75.18558         0.74119
H         47.57826        75.06747         1.12700
H         50.02299        75.09348         1.22630
H         52.47386        75.02491         1.56202
H         54.88819        74.89008         2.08414
H         57.18215        73.83921         3.38909
H         59.85254        74.79868         2.64406
H         62.28562        74.77093         2.89564
H         64.71206        74.71550         3.40064
H         67.28797        74.56887         3.86887
H         22.15055        69.04204         1.97213
H         20.99204        71.24088         2.64758
H         20.92346        73.68506         2.53411
H         24.44377        64.90422         0.42649
H         23.26588        66.98529         1.09271
H         26.94558        60.68836        -0.26918
H         25.68657        62.78660         0.01573
H         29.49058        56.48098        -0.14218
H         28.18463        58.60575        -0.32877
H         32.12054        52.38716         0.97227
H         30.83779        54.57156         0.76368
H         34.71711        48.25329         1.77624
H         33.42706        50.40484         1.38258
H         37.13429        44.09426         2.69147
H         35.90951        46.22312         2.41118
H         39.56583        39.76287         2.30942
H         38.37809        41.91015         2.70840
H         42.03810        35.35553         2.64166
H         40.82909        37.50429         2.48798
H         45.43608        31.97946         2.49912
H         43.30710        33.20109         2.66373
H         47.55417        33.09271         1.92593
H         48.81417        35.26265         1.15782
H         49.85008        37.31563         0.21589
H         50.98158        39.40641        -0.48566
H         52.11038        41.52240        -1.01836
H         53.29181        43.64909        -1.29370
H         54.50950        45.79941        -1.43026
H         55.68126        47.92568        -1.46049
H         56.92566        50.02771        -1.39237
H         58.16930        52.11308        -1.16828
H         59.43312        54.20734        -0.84932
H         60.71779        56.27220        -0.53532
H         61.96522        58.37965         0.00774
H         63.18932        60.44775         0.56563
H         64.42594        62.50459         1.14578
H         65.65829        64.54649         1.72896
H         66.93220        66.59813         2.37706
H         68.13770        68.66659         2.98679
H         69.33932        70.76962         3.67349
H         69.31053        73.19456         4.13515
