         276
 CSIRO Nanostructure Databank - Neutral Graphene Oxide Data Set
C        -11.03660         0.68805        -0.66856
C         -9.76280         1.47195        -0.45480
C         -8.53253         0.72123        -0.92553
C         -7.19376         1.40417        -0.59644
C         -6.39736         0.70180         0.49441
C         -5.18617         1.44577         0.97342
C         -3.92486         0.70009         0.64602
C         -2.73432         1.48815         0.17600
C         -1.41353         0.79512         0.05135
C         -0.11989         1.54351         0.08479
C          1.11021         0.77884         0.52811
C          2.42935         1.50394         0.69095
C          3.71469         0.74050         0.59591
C          4.97275         1.46209         0.19328
C          6.25146         0.68347         0.15496
C          7.53568         1.46891         0.27620
C          8.81953         0.70639         0.29267
C         10.15751         1.41583         0.10008
C         11.10337         0.63395        -0.78966
C         -9.73827         2.92437        -0.88463
C         -8.56652         3.64892        -0.72556
C         -7.27700         2.94000        -0.47510
C         -6.18396         3.70519         0.21184
C         -5.18343         2.99380         1.11079
C         -3.79746         3.68980         1.02251
C         -2.80214         3.03894         0.04677
C         -1.41739         3.79236        -0.09513
C         -0.08492         3.04693        -0.06308
C          1.23943         3.74714         0.08623
C          2.45627         3.01416         0.59992
C          3.77660         3.73444         0.53703
C          5.11318         2.97020         0.50993
C          6.23572         3.61614        -0.32421
C          7.54323         2.88324        -0.24203
C          8.84526         3.60632        -0.23671
C         10.00282         2.90405        -0.21836
C         -8.49067         5.07005        -0.80942
C         -7.35609         5.81943        -0.36450
C         -6.42041         5.14779         0.62913
C         -5.11646         5.93225         1.01512
C         -3.77730         5.19006         1.19405
C         -2.39221         5.95047         1.03015
C         -1.37274         5.28797         0.09952
C         -0.02991         5.99889         0.09384
C          1.26541         5.25656         0.09911
C          2.51409         5.97147         0.61144
C          3.72445         5.17310         0.07191
C          4.95256         5.84877        -0.44339
C          6.25335         5.10454        -0.56677
C          7.57984         5.88639        -0.46028
C          8.87285         5.13777        -0.12257
C         -7.22664         7.15567        -0.67652
C         -5.93850         7.90488        -0.47754
C         -5.05770         7.39641         0.65718
C         -3.78427         8.20557         0.83024
C         -2.48547         7.47890         0.89663
C         -1.20194         8.23355         0.65653
C          0.04715         7.46577         0.41317
C          1.24514         8.14238        -0.25220
C          2.53911         7.45895         0.23448
C          3.77527         8.13576        -0.22772
C          4.98477         7.34095        -0.59404
C          6.32929         8.10992        -0.49608
C          7.46559         7.30223        -0.10598
C         -6.07951         9.40585        -0.44841
C         -5.07792        10.20450        -0.06053
C         -3.77418         9.72889         0.54061
C         -2.56416        10.13320        -0.34776
C         -1.22425         9.63392         0.16453
C         -0.04976        10.30117        -0.04523
C          1.26634         9.65213        -0.05363
C          2.45406        10.28999        -0.25322
C          3.68936         9.55669        -0.78490
C          5.00743        10.22733        -0.41563
C          6.16523         9.56441        -0.21060
C        -11.07873        -0.64620        -0.82779
C         -9.90022        -1.51759        -1.23049
C         -8.56936        -0.76705        -1.07549
C         -7.45827        -1.54080        -0.39686
C         -6.39801        -0.81546         0.39131
C         -5.16717        -1.55248         0.89563
C         -3.86436        -0.77653         0.97305
C         -2.58675        -1.49359         0.64873
C         -1.43085        -0.72949         0.09377
C         -0.13032        -1.44278        -0.01331
C          1.12150        -0.71449         0.37949
C          2.41865        -1.49184         0.28211
C          3.71053        -0.75115         0.34930
C          4.96192        -1.45560         0.80662
C          6.26354        -0.72462         0.70770
C          7.56017        -1.50715         0.64082
C          8.69180        -0.76574        -0.00772
C          9.80627        -1.50257        -0.66094
C         11.01164        -0.68937        -1.00681
C         -9.87839        -2.92935        -0.67162
C         -8.76491        -3.68561        -0.53436
C         -7.41528        -3.04665        -0.53421
C         -6.26428        -3.78762         0.06832
C         -5.12339        -3.04920         0.73492
C         -3.80604        -3.78039         0.66025
C         -2.53352        -3.00550         0.48454
C         -1.33876        -3.68190        -0.16552
C         -0.03413        -2.93437        -0.15102
C          1.26772        -3.65765        -0.17894
C          2.31717        -2.97660         0.70858
C          3.65709        -3.70902         0.81120
C          4.95566        -2.96156         0.86651
C          6.20890        -3.70382         0.46047
C          7.54196        -3.00218         0.54061
C          8.69066        -3.76415        -0.04910
C          9.94014        -3.02482        -0.52567
C         -8.89536        -5.18268        -0.23934
C         -7.57989        -5.94729        -0.16469
C         -6.50582        -5.21842         0.64493
C         -5.11483        -5.99465         0.85361
C         -3.88752        -5.23940         0.29691
C         -2.58771        -5.97260         0.10924
C         -1.31040        -5.18606        -0.13613
C          0.01403        -5.89001         0.03281
C          1.22538        -5.16472        -0.55755
C          2.55362        -5.84368        -0.24426
C          3.73562        -5.15460         0.35850
C          4.95144        -5.93121         0.90482
C          6.19784        -5.19963         0.39874
C          7.52810        -5.90483         0.60821
C          8.65265        -5.11765        -0.04955
C         -7.50830        -7.26150        -0.47131
C         -6.23979        -8.04002        -0.40762
C         -5.03889        -7.37761         0.17428
C         -3.80312        -8.17651         0.54647
C         -2.50350        -7.42619         0.51775
C         -1.19330        -8.22854         0.42581
C          0.05382        -7.38439         0.16445
C          1.26521        -8.10099        -0.36801
C          2.54031        -7.32654        -0.46911
C          3.85907        -8.03343        -0.39961
C          4.91194        -7.48913         0.61302
C          6.27227        -8.08683         0.25193
C          7.42377        -7.37035         0.21146
C         -6.17759        -9.51904        -0.52993
C         -5.06095       -10.22746        -0.28439
C         -3.76302        -9.69184         0.28871
C         -2.53135       -10.10524        -0.51920
C         -1.29510        -9.52446        -0.38088
C         -0.01158       -10.27985        -0.76443
C          1.30860        -9.58687        -0.43515
C          2.50653       -10.21882        -0.57284
C          3.82581        -9.52936        -0.49990
C          5.06855       -10.23270        -0.08667
C          6.22094        -9.54817         0.11816
O          4.30672        -3.44866         2.08329
O         -0.71841         1.14424        -1.18464
O          4.46547        -8.11186         1.78741
O          7.00005         5.49537        -1.73444
O          0.87437        -0.08130         1.68270
O          3.06340         3.57373         1.79359
O          8.19703         1.16263         1.53758
O         -3.18174        -7.74939         1.77153
O         -6.20921         0.97663         1.89999
O          6.76703         2.93628        -1.48361
O          3.61215        -5.25128        -1.08607
O         -1.47764        -4.43912        -1.38353
O          1.19761         7.99581        -1.64791
O         -5.55188         6.98019         1.94463
O          5.56051        -0.82839         1.97914
O         -6.15194         3.54857        -1.21525
O          0.83871        -2.97035        -1.36312
O         -8.42137         0.11287        -2.24401
O         -5.43119        -2.44034         2.01149
O         -7.19704         5.20128         1.91261
O          7.85222        -2.32205         1.80521
O         -3.15980         7.95880         2.12290
O         -3.65934         0.88023        -0.78692
O          0.72136         5.77358        -1.13315
O          3.92049         5.29546        -1.35499
O         -3.49786        -5.67606        -1.01215
O          0.30073        -6.49462         1.31525
O         -1.62777         4.74234        -1.19583
O          3.39723         8.15669         1.19636
O          1.75773        -7.60893        -1.66769
O         -3.49518         4.25032         2.30956
O         -5.21862        -7.37709        -1.26122
O         -6.36123        -3.64042        -1.36717
O          5.48519         0.92279        -1.05498
O         -0.93994        -1.13966        -1.20745
O          6.06993        -4.42480        -0.81398
O         -2.88665        -3.61039         1.77068
O          0.79658         3.28033        -1.21218
O         -1.02168        -9.05289         1.55139
O         -0.22674         7.94518         1.74031
O          3.16667         1.08322         1.88772
O         -7.09953        -5.02514         1.88087
O          3.18510        -1.21633        -0.92410
O          8.65921        -1.03994        -1.45812
O          5.67103         7.75115        -1.76835
O          4.22060        -8.62608        -1.64542
O         -2.92616        -1.10046         2.02080
O         -7.61180        -1.28061         1.05083
O         -3.49499         3.28386        -1.18403
H         -3.04470         2.79979        -1.90881
O         10.81108         1.43068         1.40237
H         10.09962         1.52297         2.07707
O         -9.77713        -5.78074        -1.18853
H         -9.44566        -5.58213        -2.08831
O         -3.57654       -10.35136         1.56164
H         -2.83585        -9.87154         2.01382
O          5.00985        -5.81782         2.33195
H          4.68848        -6.70281         2.67882
O         11.01255        -3.29808         0.38884
H         10.65948        -3.28142         1.30266
O         -3.62904        10.43381         1.78372
H         -3.30900         9.78594         2.45576
O          5.62120         3.04063         1.86121
H          4.87876         2.81124         2.46941
O         -8.17602         4.14463         1.91162
H         -7.68892         3.41500         2.38431
O         -4.95082        -6.12887         2.24837
H         -5.76715        -5.73074         2.66779
O         -5.13517         7.56761        -1.66099
H         -5.39992         8.15253        -2.40186
O          9.18864         5.48291         1.23112
H          9.97230         4.96838         1.51573
O          7.79180        -5.87999         2.03816
H          6.91962        -5.96739         2.49919
O         -2.77015         9.52536        -1.63058
H         -1.96057         9.63690        -2.17167
O         -5.69870         3.22574         2.43452
H         -4.99406         3.65549         2.97937
O          3.52302         9.49357        -2.21000
H          2.69270         8.96534        -2.36500
O        -10.11424        -1.74125        -2.65471
H         -9.73127        -0.96420        -3.12457
O         -6.30412         1.12351        -1.69987
H         -6.62396         1.59038        -2.49977
O         -1.69344         5.77688         2.28440
H         -2.13095         6.35050         2.95291
O          1.73139        -2.99072         2.02379
H          2.46159        -2.94652         2.68480
O          1.04804        -5.25064        -1.96956
H          1.85572        -4.90285        -2.40461
O         -0.04350       -10.50425        -2.18067
H          0.32525        -9.71683        -2.63443
O          2.47172         5.92273         2.03998
H          2.88772         6.74281         2.39019
O         -9.55911         1.52927         0.99766
H        -10.34677         1.94645         1.40609
H         11.81183        -1.20157        -1.56290
H         12.00524         1.16910        -1.12443
H         10.95258         3.46650        -0.20974
H          9.68472         5.52896        -0.80239
H          8.18539         7.70927         0.62004
H          7.06144        10.11776         0.10951
H          4.99149        11.31542        -0.24540
H          2.49683        11.39101        -0.22302
H         -0.09070        11.35090        -0.38124
H         -2.54290        11.25387        -0.45031
H         -5.21017        11.29668        -0.09564
H         -7.01263         9.84184        -0.83885
H         -7.98150         7.62388        -1.33060
H         -9.34719         5.62113        -1.23040
H        -10.68571         3.45609        -1.06848
H        -11.97861         1.23695        -0.50240
H        -12.06440        -1.13666        -0.87355
H        -10.85738        -3.43207        -0.61580
H         -9.38462        -5.28643         0.76684
H         -8.38728        -7.74829        -0.92569
H         -7.08159       -10.04090        -0.88088
H         -5.09073       -11.32032        -0.41665
H         -2.60304       -11.03910        -1.10125
H         -0.04437       -11.28732        -0.27435
H          2.51848       -11.31260        -0.70951
H          5.07133       -11.33327        -0.09202
H          7.16187       -10.10125         0.26409
H          8.37066        -7.90495         0.02732
H          9.50888        -5.67915        -0.45637
H         10.25399        -3.43297        -1.52207
