         280
 CSIRO Nanostructure Databank - Neutral Graphene Oxide Data Set
C         30.72838        31.99161        -2.08910
C         30.86009        33.22081        -1.82708
C         30.70584        36.18982        -1.19511
C         31.00741        37.29076        -1.69369
C         31.10887        40.35543        -2.11978
C         31.03744        41.58852        -1.99226
C         33.02400        29.14582        -1.69390
C         31.96614        29.71103        -2.02242
C         33.04507        31.80548        -1.24902
C         32.00939        31.21607        -2.28855
C         32.95528        33.11611        -0.78944
C         31.74845        33.90784        -0.98084
C         32.98318        35.92840        -0.52010
C         31.59777        35.27733        -0.39669
C         33.22653        37.22072        -1.07683
C         32.21045        38.04945        -1.66324
C         33.16141        40.29887        -0.90731
C         32.37474        39.51644        -2.05431
C         33.06583        41.81292        -0.79147
C         31.92144        42.50444        -1.30970
C         32.91194        44.42254        -0.40320
C         31.96722        43.88646        -1.06256
C         35.68995        27.50372        -1.54303
C         35.45484        28.84987        -1.13912
C         34.27725        29.52944        -1.14150
C         35.49592        31.69567        -0.71626
C         34.15101        30.96263        -0.61370
C         35.38894        33.06420        -0.05532
C         34.12481        33.75532        -0.14878
C         35.27911        35.87575         0.46932
C         34.10192        35.15564        -0.05425
C         35.46158        37.26789         0.03362
C         34.58013        37.71014        -0.92218
C         35.44495        40.32905         0.05928
C         34.60781        39.90194        -0.90278
C         35.19812        41.69215         0.67037
C         34.07161        42.46224        -0.03306
C         35.07421        44.51959         1.09817
C         34.04160        43.86499         0.20181
C         35.24354        46.02245         0.88201
C         37.86791        27.19173        -0.61510
C         36.83579        26.99221        -1.65851
C         37.88156        28.53070        -0.18136
C         36.83752        29.48514        -0.86148
C         37.86450        31.51921         0.06808
C         36.67054        30.85674        -0.24156
C         37.88283        33.05280        -0.13082
C         36.56892        33.68992         0.32299
C         37.86701        35.87802         1.01166
C         36.56637        35.09018         0.77352
C         37.82419        37.37451         0.69968
C         36.68068        38.02887         0.35312
C         37.70944        40.24435         1.25990
C         36.58560        39.51853         0.57559
C         37.70186        41.78406         1.28638
C         36.53028        42.44028         0.47091
C         37.65679        44.58924         0.85558
C         36.47128        43.90406         0.84504
C         37.70393        46.04797         1.00425
C         36.36905        46.54853         0.96550
C         40.11211        24.80606         1.38491
C         39.20627        25.38706         0.73227
C         40.27134        27.49081         1.86076
C         38.45519        25.87744        -0.33714
C         40.20177        28.58914         1.02650
C         38.86674        29.30280         0.76015
C         40.31858        31.47402         0.48103
C         39.02418        30.76944         0.30737
C         40.40957        33.00185         0.10904
C         39.11122        33.68877         0.59464
C         40.33671        35.93421         0.93481
C         39.10805        35.23482         0.34644
C         40.40287        37.44098         0.95512
C         39.09394        38.15416         0.91371
C         40.32630        40.29962         1.54888
C         39.00221        39.48247         1.65056
C         40.28112        41.66313         0.91702
C         38.97835        42.36868         0.71907
C         40.20781        44.53808         0.95172
C         38.94537        43.89127         0.36991
C         40.20339        45.98211         1.33156
C         38.89464        46.73811         1.17147
C         40.19507        48.75559         1.35495
C         39.09150        48.12473         1.30249
C         42.64085        24.63940         2.18855
C         41.34720        25.24023         1.93658
C         42.81006        27.18705         1.48968
C         41.46085        26.64348         1.91740
C         42.72416        28.68067         1.35708
C         41.51372        29.11197         0.47102
C         42.89551        31.15358         0.17383
C         41.54707        30.61183         0.50409
C         42.89874        33.32654        -0.07965
C         41.68300        33.69345         0.72049
C         42.87670        36.02283         0.84646
C         41.63157        35.20501         0.98137
C         42.90549        37.38613         1.03362
C         41.66484        38.04213         1.65321
C         42.98264        40.35905         1.37530
C         41.65980        39.59197         1.60381
C         42.79610        41.76298         0.79779
C         41.55440        42.43345         0.81514
C         42.68886        44.58714         0.49911
C         41.51023        43.84118         0.70461
C         42.56192        46.10031         0.36735
C         41.57397        46.69240         1.44196
C         42.75321        48.84535         1.00380
C         41.49339        48.30431         1.28633
C         43.76054        25.18416         2.21014
C         45.24201        27.36835         1.84722
C         43.99504        26.68827         2.36538
C         45.27248        28.74004         1.65606
C         43.98706        29.49509         1.52343
C         45.24336        31.74006         1.03437
C         44.06718        30.77032         0.74667
C         45.36978        33.03341         0.14735
C         44.09871        33.85064         0.24468
C         45.32006        36.04927         0.03924
C         44.06312        35.32672         0.31084
C         45.30945        37.50363         0.27839
C         44.11098        38.15750         0.69332
C         45.27081        40.29480         0.37906
C         44.11140        39.57544         0.72850
C         45.30555        41.81352         0.55618
C         43.95717        42.49685         0.50901
C         45.17260        44.63766         0.07420
C         43.91673        43.90251         0.32826
C         45.12171        46.10324         0.23645
C         43.95109        46.78646         0.42558
C         43.77313        48.15593         0.71674
C         47.49137        27.27688         0.95695
C         46.52167        26.77595         1.55582
C         47.85251        28.69963         1.16979
C         46.57831        29.51047         1.47481
C         47.84686        31.72324         0.64737
C         46.60441        31.00329         1.15253
C         47.84968        33.08057         0.46446
C         46.57426        33.89878         0.65036
C         47.75476        35.97320        -0.26063
C         46.58574        35.28198         0.00815
C         47.64735        37.43111        -0.69812
C         46.47992        38.20026        -0.05681
C         47.65503        40.37124        -0.42300
C         46.45084        39.60691        -0.00549
C         47.60780        41.83335        -0.17600
C         46.28198        42.47558        -0.45623
C         47.69793        44.66899        -0.60251
C         46.33183        43.98426        -0.26190
C         47.51858        46.12139        -0.22604
C         46.44706        46.63100         0.11857
C         49.85751        28.81053        -0.45138
C         49.03920        29.39274         0.60061
C         50.13735        31.53310        -0.47858
C         49.19275        30.97878         0.63095
C         50.20581        33.05811        -0.54459
C         49.08409        33.85301         0.10586
C         50.24816        36.05114        -0.42235
C         49.00861        35.32183        -0.14152
C         50.16561        37.52019        -0.72216
C         48.97781        38.17061        -0.64921
C         50.25852        40.32098        -0.83339
C         48.92269        39.65368        -0.77708
C         50.59164        41.40924        -0.08202
C         48.63690        42.54537         0.35213
C         50.19021        44.19248         0.01131
C         48.84215        43.96796         0.10272
C         50.25701        29.30180        -1.52700
C         51.19953        31.51923        -2.68790
C         50.78504        30.66714        -1.56847
C         51.34026        32.74031        -2.65514
C         51.23541        33.75769        -1.54497
C         51.75288        36.12410        -2.38196
C         50.77336        35.12230        -2.02533
C         52.13932        37.25704        -2.07520
C         51.51731        38.23019        -1.08742
C         52.42542        40.53801        -1.80269
C         51.24348        39.59479        -1.75904
C         52.62692        41.62460        -1.23494
C         51.69352        42.34725        -0.41684
C         51.34786        43.65539        -0.14955
O         51.51672        31.01144        -0.36419
O         39.98984        38.13895        -0.24875
O         42.96935        29.41358         2.58253
O         49.03237        28.88495         1.95496
O         38.89534        44.03232        -1.01199
O         36.61009        39.72760         2.06146
O         39.54549        41.58013        -0.35799
O         40.82152        35.41901         2.19605
O         46.78480        30.49656         2.52398
O         50.33329        33.50844         0.83223
O         42.88734        32.13157        -0.80410
O         34.96162        38.80607        -1.69795
O         40.94036        31.06709         1.75005
O         37.96207        33.26722        -1.53341
O         40.06949        44.94277         2.36656
O         35.61674        35.46095         1.82912
O         44.40428        35.75263        -1.10163
O         49.72054        41.84469         0.92401
O         41.04681        40.19957         2.80374
O         47.99749        40.09091        -1.87199
O         41.70823        28.64445        -0.89021
H         42.22111        29.31213        -1.39390
O         49.68845        35.00233        -2.86683
H         49.49425        35.86042        -3.29776
O         39.01020        33.39092         1.99533
H         38.71994        34.20707         2.48202
O         40.54768        33.10445        -1.30208
H         39.62738        33.09428        -1.70465
O         33.07479        39.64424        -3.26965
H         32.69934        39.03064        -3.93291
O         41.65007        37.67751         3.03758
H         40.90221        38.16107         3.45843
O         39.09952        35.53526        -1.04241
H         38.58860        34.81695        -1.52119
O         51.32822        35.86054         0.43582
H         51.26880        34.95880         0.84644
O         37.40491        29.72579        -2.17431
H         36.90613        30.49161        -2.56078
O         38.13267        29.38856         2.03378
H         38.57353        30.07958         2.57705
O         45.84411        42.05884         1.87853
H         45.21839        41.63351         2.51587
O         49.81274        31.25708         1.88216
H         50.73912        30.93787         1.84599
O         38.86481        39.10463         3.03457
H         38.55356        39.88742         3.53693
O         41.96539        46.40018        -0.90305
H         42.30648        45.78695        -1.58640
O         36.80532        42.34556        -0.93282
H         37.58512        42.94275        -1.17271
O         52.47340        33.85809        -0.89500
H         52.75328        32.95818        -0.61810
O         37.59389        42.18190         2.66195
H         36.67556        41.95356         2.94653
O         42.11677        46.45406         2.72601
H         41.50430        45.84900         3.20894
O         35.77071        31.92370        -2.12416
H         36.59291        32.52155        -2.13520
O         38.15580        24.92576        -1.23501
H         37.58351        25.31989        -1.94327
O         43.10932        26.65596         0.17827
H         42.50169        27.07791        -0.47861
O         47.92716        44.53105        -1.99582
H         47.16739        44.91053        -2.48392
O         50.67642        39.34395        -3.02384
H         50.37045        40.18650        -3.41696
O         38.09595        35.83846         2.44885
H         37.22591        36.02271         2.87498
O         47.34869        37.39033        -2.12604
H         47.34323        38.32935        -2.43603
O         33.84065        30.85780         0.79339
H         32.95365        30.45141         0.88959
O         34.72596        44.29493         2.45516
H         33.78314        44.52469         2.58467
O         45.65214        32.61285        -1.19722
H         45.29141        33.28599        -1.81323
O         34.88805        41.62707         2.07332
H         34.34526        40.82636         2.23160
O         52.30642        38.41856         0.05414
H         52.41386        37.54312         0.49152
O         31.19095        35.18814         0.96458
H         31.16292        36.08778         1.35005
O         42.00009        33.16106         2.02255
H         41.28134        33.45175         2.63110
O         43.79954        27.04375         3.71328
H         44.62913        26.91611         4.21659
O         44.89723        32.19279         2.36010
H         45.10646        31.46355         2.98927
O         32.61722        39.78158         0.34579
H         31.66869        40.03507         0.37816
O         32.52253        31.42331        -3.57311
H         31.85746        31.14683        -4.23571
O         39.21719        27.09118         2.60736
H         38.52225        27.80190         2.57544
O         43.53277        40.62746         2.71035
H         42.76093        40.75105         3.31365
O         45.83807        42.19915        -1.79886
H         46.47280        41.57884        -2.21957
O         46.46654        34.23510         2.05011
H         45.92531        33.54491         2.51465
