         210
 CSIRO Nanostructure Databank - Neutral Graphene Oxide Data Set
C         30.45048        31.80995         0.91937
C         30.46780        32.96501         1.37298
C         30.66820        36.11430         2.19765
C         30.64221        37.34048         2.09045
C         30.56116        40.28609         1.17736
C         30.40021        41.39525         0.60002
C         32.72509        29.11094        -0.23986
C         31.62633        29.62841         0.07794
C         32.80639        31.65279         0.55895
C         31.53579        30.97272         0.50552
C         32.81385        33.12881         0.79553
C         31.67896        33.77566         1.57736
C         33.02206        36.01530         1.63601
C         31.79136        35.20440         1.97936
C         33.01884        37.40585         1.69940
C         31.83108        38.25804         2.18228
C         32.87802        40.21504         0.94517
C         31.72210        39.53519         1.40100
C         32.79096        41.52813         0.33661
C         31.48714        42.16633         0.13413
C         32.65912        43.98908        -0.77794
C         31.56955        43.42849        -0.49907
C         35.36189        27.73061        -1.30482
C         35.20216        28.96168        -0.61781
C         34.04419        29.62110        -0.20999
C         35.30242        31.71605         0.38754
C         34.03844        31.00775         0.25127
C         35.34741        33.08479         0.62988
C         34.11515        33.89287         0.73598
C         35.43293        35.96402         1.13157
C         34.21223        35.29912         1.23242
C         35.52552        37.43059         1.50554
C         34.20468        38.15580         1.36089
C         35.40662        40.24615         0.79265
C         34.15170        39.50966         1.06738
C         35.32216        41.63403         0.24404
C         33.98386        42.21825        -0.05079
C         35.20528        44.25671        -0.80207
C         33.97931        43.51490        -0.61704
C         35.30873        45.65619        -1.00430
C         37.72481        27.73375        -1.93200
C         36.37233        27.13380        -1.70763
C         37.75841        29.00797        -1.01378
C         36.54684        29.52888        -0.33671
C         37.86446        31.65876         0.14422
C         36.58032        30.94977         0.26551
C         37.93220        33.03417         0.65045
C         36.61622        33.78325         0.92335
C         37.88245        35.94380         0.74143
C         36.65250        35.25876         0.89420
C         37.90488        37.38350         0.65442
C         36.69417        38.12436         0.83668
C         37.85540        40.19136         0.18748
C         36.66383        39.48636         0.57902
C         37.82362        41.56460        -0.17277
C         36.48974        42.14367        -0.58784
C         37.70117        44.38044        -0.72173
C         36.47643        43.64972        -0.67751
C         37.68698        45.80878        -0.88090
C         36.37450        46.31470        -1.02200
C         39.99215        24.75211        -0.97018
C         39.01166        25.52861        -1.24077
C         40.22733        27.48953        -1.46702
C         38.88178        26.85846        -1.53202
C         40.24703        29.01532        -1.22453
C         38.96198        29.66662        -0.85222
C         40.29288        31.70506        -0.24227
C         39.02300        31.00686        -0.27948
C         40.33602        33.10151         0.06444
C         39.13973        33.81999         0.41531
C         40.34359        35.96515         0.40702
C         39.12283        35.22938         0.54791
C         40.35498        37.36336         0.31264
C         39.11018        38.07951         0.37904
C         40.31624        40.21432        -0.03150
C         39.10305        39.49751         0.19364
C         40.29025        41.62516        -0.24302
C         39.01894        42.29516        -0.34284
C         40.18700        44.46610        -0.61841
C         38.97829        43.72309        -0.57992
C         40.16466        45.90248        -0.74009
C         38.88759        46.55005        -0.85440
C         40.04075        48.67333        -0.83203
C         39.01731        47.95238        -0.90930
C         42.57058        24.63380        -0.73061
C         41.31085        25.25416        -0.95517
C         42.65343        27.39370        -0.89120
C         41.42595        26.70210        -1.10568
C         42.70040        28.84306        -0.76595
C         41.51068        29.60399        -0.77259
C         42.76779        31.66904        -0.36060
C         41.51711        30.99660        -0.44865
C         42.77991        33.09266        -0.15595
C         41.56862        33.78752         0.07469
C         42.84021        35.95664         0.06666
C         41.63327        35.21245         0.56073
C         42.82872        37.38969        -0.00242
C         41.58776        38.09809         0.12213
C         42.78850        40.23179        -0.23820
C         41.56830        39.50734        -0.03844
C         42.77073        41.65330        -0.41514
C         41.51001        42.35427        -0.41628
C         42.65820        44.53015        -0.67952
C         41.45927        43.78351        -0.55939
C         42.63938        45.95846        -0.69939
C         41.38090        46.66933        -0.70824
C         42.61276        48.74495        -0.62194
C         41.34084        48.12849        -0.71753
C         43.64518        25.27520        -0.65702
C         45.10868        27.33575        -0.43822
C         43.88217        26.66914        -0.66358
C         45.17395        28.77620        -0.36883
C         43.95252        29.50744        -0.50530
C         45.25112        31.60806        -0.28676
C         43.98893        30.92990        -0.40554
C         45.28292        33.10206        -0.52244
C         43.99858        33.80689        -0.18707
C         45.29112        35.92418        -0.22953
C         44.02225        35.22465        -0.13211
C         45.29025        37.36824        -0.61626
C         44.02415        38.10286        -0.24096
C         45.27324        40.23039        -0.44113
C         44.02577        39.52080        -0.30765
C         45.24443        41.64115        -0.63169
C         44.00223        42.33763        -0.65251
C         45.22793        44.60045        -0.99613
C         43.92777        43.79802        -0.92001
C         45.14159        46.04688        -0.65262
C         43.89252        46.68783        -0.65302
C         43.67107        48.07729        -0.55606
C         47.45338        27.36739        -0.00523
C         46.38131        26.75460        -0.23363
C         47.64689        28.76011         0.09275
C         46.41236        29.46703        -0.12079
C         47.77284        31.64003        -0.07243
C         46.43579        30.90429        -0.11188
C         47.64709        33.04158         0.50587
C         46.40806        33.79242         0.21305
C         47.73227        35.95210         0.16543
C         46.46728        35.26428         0.04644
C         47.75246        37.36426         0.08975
C         46.54183        38.09791        -0.19891
C         47.80804        40.19657        -0.21804
C         46.51289        39.48670        -0.29364
C         47.83448        41.68133        -0.39261
C         46.54264        42.36860        -0.78652
C         47.74718        44.58258        -0.29876
C         46.55241        43.87135        -0.87632
C         47.47822        45.93864        -0.18653
C         46.40393        46.58604        -0.39240
C         50.08021        28.85163         0.82822
C         48.85787        29.43730         0.45615
C         50.07916        31.53947         1.00930
C         48.92328        30.86441         0.55729
C         50.00160        33.03813         1.37031
C         48.89650        33.81935         0.69185
C         50.25008        35.91331         0.43741
C         48.92554        35.18032         0.49805
C         50.15348        37.40057         0.76932
C         48.96362        38.10065         0.43784
C         50.09133        40.28695         0.79305
C         48.95944        39.51931         0.41566
C         50.08291        41.74849         0.75432
C         48.95254        42.44539         0.22320
C         50.02991        44.45365         0.76824
C         48.86998        43.87446         0.20341
C         51.13318        29.41083         1.24655
C         52.36657        31.62674         1.82374
C         51.26884        30.80190         1.38427
C         52.34993        32.87243         1.73213
C         51.34110        33.79922         1.35240
C         52.42431        36.07617         1.43102
C         51.38727        35.14274         1.15373
C         52.43796        37.31912         1.47023
C         51.28641        38.14708         1.17351
C         52.27524        40.42941         1.66670
C         51.24722        39.55320         1.24736
C         52.29913        41.68038         1.71670
C         51.23111        42.49635         1.26673
C         51.05544        43.89672         1.22933
O         37.38345        33.18368         2.01562
O         46.64667        33.24334         1.55234
O         44.52417        44.22950        -2.20438
O         46.77883        43.06182        -2.06266
O         32.02152        34.13316         2.93207
O         48.25156        40.80481        -1.49932
O         35.59518        41.44246         1.65799
O         36.69971        29.75856         1.10477
O         33.19203        33.83555        -0.42816
O         40.39224        28.45093        -2.58195
O         36.23085        41.63125        -1.93478
H         36.93095        41.97030        -2.53160
O         32.08242        38.59383         3.54738
H         31.37984        39.20239         3.85683
O         45.30988        37.37243        -2.09537
H         45.50014        38.29025        -2.38761
O         41.83630        35.10319         2.03208
H         41.06183        34.62330         2.39819
O         37.84301        28.14401        -3.28803
H         38.80030        28.30945        -3.47453
O         35.83738        37.43870         2.93689
H         35.76695        38.36311         3.25729
O         48.17388        31.85795        -1.45551
H         48.21444        30.99117        -1.91084
O         49.61329        33.04247         2.77463
H         50.28985        32.54032         3.27809
O         50.62076        35.87020        -0.97169
H         51.44041        36.39690        -1.08723
O         45.53361        33.30242        -1.94449
H         44.75239        32.98554        -2.44356
