         661
 CSIRO Nanostructure Databank - Neutral Graphene Oxide Data Set
C          5.92116        31.48354         0.01191
C          5.93562        32.84950         0.04458
C          8.36188        27.18416         0.13821
C          8.33086        28.57519         0.35854
C          7.13598        29.32506         0.15518
C          8.33466        31.42867         0.54727
C          7.11870        30.71670         0.24532
C          8.34664        32.84164         0.56953
C          7.14567        33.58661         0.30898
C          8.32113        35.76692         0.50651
C          7.15470        34.99103         0.25988
C          8.34236        37.15042         0.39325
C         10.81573        22.97120        -0.70348
C         10.81582        24.35791        -0.35809
C          9.58266        25.11035        -0.26886
C         10.79989        26.97097         0.88034
C          9.54506        26.40848         0.21740
C         10.77217        28.49389         1.03400
C          9.53338        29.28182         0.72287
C         10.80010        31.39950         1.17654
C          9.52413        30.66853         0.81112
C         10.77188        32.88887         0.88544
C          9.59206        33.56526         0.77146
C         10.82405        35.78216         0.75378
C          9.53541        35.05865         1.05940
C         10.80404        37.22898         0.64564
C          9.54773        37.92746         0.57177
C         10.75655        40.07822         0.74580
C          9.55264        39.32776         0.57013
C         10.78562        41.49065         0.75842
C         13.19554        18.90939        -2.09957
C         13.18385        20.25463        -1.80655
C         12.00298        20.90357        -1.33974
C         13.28952        22.94772        -0.83888
C         12.00277        22.27007        -0.99126
C         13.28358        24.26073        -0.15693
C         12.02668        25.01915        -0.12306
C         13.35960        27.12530         0.40490
C         12.02258        26.52290         0.02726
C         13.42175        28.51577         1.00999
C         12.07798        29.23653         1.06622
C         13.25944        31.45491         0.37275
C         11.96125        30.64251         0.48854
C         13.25713        32.94930         0.46497
C         12.06776        33.62442         1.16535
C         13.28545        35.78139         0.61511
C         12.00153        35.09334         0.82874
C         13.28341        37.27575         0.50748
C         12.00086        37.96691         0.68610
C         13.21295        40.08768         1.16616
C         12.00228        39.37647         0.85839
C         13.20582        41.46669         1.25324
C         11.99666        42.19876         0.95066
C         13.30506        44.30503         0.87943
C         12.06173        43.60472         0.80800
C         13.36646        45.69149         0.50892
C         15.68530        14.80742        -1.37287
C         15.63019        16.11163        -1.97575
C         14.42789        16.77712        -2.15769
C         15.66001        18.91667        -2.63868
C         14.33746        18.15846        -2.75238
C         15.65623        20.37875        -2.33249
C         14.35155        21.16144        -2.17548
C         15.75215        23.04188        -1.09817
C         14.46311        22.37515        -1.26614
C         15.80928        24.39787        -0.60214
C         14.58755        25.01836        -0.06151
C         15.81529        27.19861         0.12639
C         14.54655        26.48593         0.15546
C         15.80592        28.64357         0.29562
C         14.57724        29.34120         0.46459
C         15.78973        31.48188         0.51952
C         14.56122        30.74016         0.42787
C         15.81758        32.90514         0.64214
C         14.58702        33.71639         0.32165
C         15.79270        35.86195         0.85941
C         14.54088        35.05437         1.05363
C         15.78155        37.21609         0.90851
C         14.57206        38.07200         0.58856
C         15.74271        40.12856         1.40780
C         14.46994        39.29900         1.50126
C         15.72225        41.47851         1.54820
C         14.41592        42.21794         1.76841
C         15.72211        44.42263         1.58402
C         14.47660        43.63769         1.27097
C         15.81178        45.72600         0.82650
C         14.58304        46.37963         0.41102
C         15.85172        48.37104        -0.31608
C         14.63215        47.71213        -0.08404
C         15.92668        49.70733        -0.74950
C         18.20842        11.38042         1.14383
C         18.20945        12.50641         0.24862
C         16.96521        13.05741        -0.18723
C         18.15592        14.98665        -1.18129
C         16.89279        14.24790        -0.92456
C         18.13578        15.96032        -2.34441
C         16.87833        16.77747        -2.30643
C         18.17067        18.85088        -2.46326
C         16.92916        18.15728        -2.44994
C         18.21281        20.24458        -1.99498
C         16.91433        20.95981        -1.76841
C         18.25338        22.99239        -1.22748
C         16.92973        22.39470        -1.45069
C         18.28411        24.46005        -0.88245
C         16.99089        25.13869        -0.61142
C         18.19607        27.35238        -0.61827
C         16.98257        26.52425        -0.24014
C         18.27170        28.61546         0.22672
C         17.01228        29.37614         0.30998
C         18.28439        31.48182         0.63937
C         17.02698        30.76761         0.52597
C         18.25681        32.90604         0.82953
C         17.02486        33.60180         0.81388
C         18.29488        35.75668         1.24811
C         17.08263        35.11081         0.62164
C         18.23751        37.17993         1.66559
C         16.98781        37.94972         1.37875
C         18.25807        40.11155         1.74706
C         17.06533        39.43602         1.09243
C         18.22066        41.48656         1.80745
C         16.98111        42.22811         1.57801
C         18.24888        44.34729         1.46408
C         16.99593        43.60980         1.49809
C         18.27476        45.70925         1.05286
C         17.03271        46.32637         0.61965
C         18.42533        48.36083        -0.14378
C         17.09894        47.60354        -0.11410
C         18.34741        49.80259        -0.37509
C         17.15539        50.42150        -0.77593
C         18.34466        52.56498        -1.12594
C         17.21112        51.80184        -1.23507
C         18.44154        53.89533        -1.66253
C         20.65579         8.80169         4.46906
C         20.64181         9.57325         3.29943
C         19.42545         9.92629         2.67620
C         20.66931        11.12211         0.81807
C         19.39534        10.80179         1.57475
C         20.73786        12.62189         0.47161
C         19.43662        13.09036        -0.11126
C         20.73070        14.75164        -1.50417
C         19.47522        14.36739        -0.80763
C         20.64177        15.96061        -2.36614
C         19.40200        16.76429        -2.35351
C         20.66547        18.89799        -2.61751
C         19.41807        18.14339        -2.48111
C         20.69796        20.28954        -2.47840
C         19.47884        21.01264        -2.10989
C         20.64672        23.20913        -2.07605
C         19.45844        22.35941        -1.83096
C         20.68667        24.61021        -1.56376
C         19.51256        25.22734        -1.17885
C         20.66964        27.48057        -1.16215
C         19.55498        26.60840        -0.57539
C         20.74321        28.79299        -0.41018
C         19.58847        29.36297         0.29896
C         20.76932        31.57432         0.54982
C         19.51246        30.82149         0.49653
C         20.70923        33.03133         0.65163
C         19.49594        33.65104         0.85947
C         20.75039        35.69152         1.61556
C         19.46971        35.07508         1.18676
C         20.75178        37.18761         2.02081
C         19.48840        37.95001         1.89100
C         20.69410        40.02650         2.48663
C         19.44902        39.31800         2.05925
C         20.68106        41.52828         2.46256
C         19.35515        42.30829         2.37948
C         20.65307        44.42518         1.84989
C         19.45658        43.69085         1.77269
C         20.65959        45.81081         1.59967
C         19.49115        46.44497         1.10883
C         20.71466        48.57959         0.78724
C         19.58275        47.81597         0.60990
C         20.84700        49.92040         0.17462
C         19.60358        50.56237        -0.36913
C         20.82438        52.75467        -0.52500
C         19.50049        52.06407        -0.29028
C         20.83909        54.04162        -1.08469
C         19.60915        54.60931        -1.62646
C         20.95907        56.54264        -2.53120
C         19.59946        56.03097        -2.13140
C         21.05412        57.59816        -3.40915
C         23.05466         7.57664         7.07828
C         21.86243         7.79040         6.36861
C         23.10027         9.07188         4.67238
C         21.85925         8.53669         5.17388
C         23.12886         9.80049         3.46802
C         21.90173        10.06178         2.73787
C         23.19745        11.11004         0.86342
C         21.92142        10.76862         1.56038
C         23.14529        12.28933        -0.08929
C         21.97840        12.95491        -0.36439
C         23.09628        14.37905        -2.25392
C         21.91674        14.08237        -1.30424
C         23.19559        15.88667        -2.63131
C         21.89274        16.63527        -2.79786
C         23.22356        18.88978        -2.89483
C         21.89301        18.14180        -2.96992
C         23.17018        20.35171        -2.63992
C         21.96496        21.01494        -2.52255
C         23.19530        23.25830        -2.14889
C         21.94631        22.50658        -2.42454
C         23.17477        24.60897        -1.85041
C         21.95156        25.32804        -1.57207
C         23.17422        27.45485        -1.23829
C         21.98687        26.72095        -1.26173
C         23.19305        28.90321        -1.10085
C         21.88905        29.61702        -0.65747
C         23.23961        31.75019        -0.28068
C         22.04282        30.92291         0.04413
C         23.19440        33.14804         0.06518
C         21.88911        33.88255         0.25490
C         23.20715        35.79991         1.26605
C         21.99639        35.12890         1.10826
C         23.23172        37.19731         1.74305
C         22.02101        37.89440         1.94128
C         23.24219        40.11065         2.17927
C         22.04069        39.27501         2.55558
C         23.25813        41.48385         2.20369
C         21.96194        42.21818         2.08617
C         23.20587        44.42772         2.23855
C         21.94828        43.69287         1.89222
C         23.20651        45.92823         2.14415
C         21.87804        46.60555         1.90996
C         23.15471        48.83577         1.59489
C         21.85662        48.07357         1.58289
C         23.14909        50.21056         1.00857
C         22.02167        50.78283         0.48146
C         23.19098        52.95106         0.05616
C         22.01579        52.17421         0.00432
C         23.24934        54.23419        -0.57057
C         22.07095        54.76319        -1.18170
C         23.38360        56.63019        -2.11898
C         22.13768        55.99153        -1.92351
C         23.47244        57.76671        -2.99865
C         22.31193        58.20908        -3.69714
C         23.63257        59.88850        -4.85408
C         22.41319        59.27543        -4.62560
C         24.25552         8.10196         6.62632
C         25.51555         9.40832         4.94855
C         24.31120         8.86153         5.42009
C         25.56161        10.14527         3.74135
C         24.35259        10.34544         2.98108
C         25.61211        11.57446         1.28043
C         24.39300        11.06797         1.76192
C         25.67127        12.21013        -0.00875
C         24.44130        12.63345        -0.76035
C         25.71294        14.56995        -2.06296
C         24.45528        13.76327        -1.81278
C         25.70897        15.94796        -2.22541
C         24.46287        16.67934        -2.55013
C         25.73848        18.84959        -2.68743
C         24.45267        18.14958        -2.54237
C         25.75232        20.36819        -2.74054
C         24.44619        21.11532        -2.74759
C         25.77236        23.23764        -2.11443
C         24.47690        22.59115        -2.47099
C         25.76604        24.63375        -1.86631
C         24.46665        25.35686        -1.91412
C         25.73303        27.54299        -1.33512
C         24.46211        26.81072        -1.56203
C         25.71657        28.90352        -1.14566
C         24.46612        29.57904        -0.61513
C         25.62072        31.88580        -0.90680
C         24.39036        31.09839        -0.70824
C         25.61324        33.31270        -0.41648
C         24.37409        33.89070         0.15569
C         25.69279        35.73085         1.17974
C         24.40946        35.16343         0.79673
C         25.71788        37.22715         1.71373
C         24.45160        37.91704         1.79304
C         25.63546        40.09815         1.42742
C         24.55261        39.36763         2.22327
C         25.70593        41.56808         1.79616
C         24.50520        42.22629         2.08784
C         25.78985        44.52491         2.42014
C         24.49624        43.68382         2.38324
C         25.66008        45.89222         1.69753
C         24.47731        46.61946         1.78113
C         25.60515        48.74519         1.27900
C         24.44488        48.07344         1.58102
C         25.68074        50.22203         1.32276
C         24.36786        51.00142         1.22355
C         25.67135        53.20259         0.80013
C         24.37469        52.44349         0.79936
C         25.70378        54.61373         0.17509
C         24.48322        54.95906        -0.67435
C         25.83775        56.76502        -1.69716
C         24.55465        56.11750        -1.46081
C         25.91410        58.10492        -2.38585
C         24.70251        58.44412        -3.21339
C         24.77383        59.48265        -4.13636
C         26.78437        10.62591         3.22799
C         28.09589        11.66723         1.43559
C         26.84197        11.29135         1.99103
C         28.15989        12.19607         0.14046
C         26.92447        12.28456        -0.58689
C         28.21059        14.56117        -1.78672
C         27.00036        13.91631        -1.98958
C         28.29130        15.95590        -2.22528
C         26.96834        16.68326        -2.46820
C         28.20398        18.86348        -2.30421
C         27.00414        18.15698        -2.39107
C         28.17480        20.31484        -2.25128
C         26.99455        21.06180        -2.33295
C         28.22029        23.19685        -1.87474
C         26.97391        22.49515        -2.11315
C         28.21774        24.64269        -1.68056
C         26.96725        25.36243        -1.67086
C         28.19388        27.46930        -1.22763
C         26.98202        26.79552        -1.46929
C         28.21329        28.90676        -1.02802
C         26.98862        29.66616        -1.47330
C         28.15888        31.78651        -0.50100
C         26.95978        31.15703        -1.08890
C         28.16326        33.14704        -0.12257
C         26.93736        33.97473        -0.14322
C         28.14666        35.87086         0.89100
C         26.95027        35.21064         0.66247
C         28.17923        37.26564         1.27841
C         26.97327        37.97182         1.52108
C         28.16607        40.10035         1.42510
C         26.96253        39.37971         1.52445
C         28.15198        41.54843         1.41207
C         26.93628        42.25662         1.69812
C         28.21242        44.44103         1.46236
C         27.02446        43.70854         2.00251
C         28.08439        45.89060         1.15667
C         26.88776        46.55378         1.26303
C         28.07705        48.75806         0.79765
C         26.78358        47.98333         0.73560
C         28.09664        50.16074         0.78830
C         26.91703        50.92461         0.96293
C         28.18677        52.98784         0.36440
C         26.99342        52.44435         1.12479
C         28.14773        54.24955        -0.30296
C         26.99179        54.95180        -0.53154
C         27.00160        56.15235        -1.31398
C         29.35589        12.78414        -0.38272
C         30.61171        14.65109        -1.28194
C         29.39332        13.92952        -1.21233
C         30.67365        16.03226        -1.61046
C         29.49011        16.74888        -1.95312
C         30.72434        18.83409        -1.98255
C         29.48110        18.15285        -2.10270
C         30.76992        20.30743        -2.12276
C         29.45134        21.04830        -2.16566
C         30.71163        23.14447        -1.61833
C         29.41026        22.48102        -1.83617
C         30.71077        24.62915        -1.45978
C         29.42124        25.33361        -1.47711
C         30.64668        27.39182        -0.90696
C         29.43663        26.73734        -1.19097
C         30.60717        28.80030        -0.48992
C         29.36323        29.57498        -0.68247
C         30.55513        31.61895         0.01305
C         29.37915        31.00714        -0.38691
C         30.55335        32.97678         0.64318
C         29.33412        33.78228         0.34837
C         30.61999        35.86870         0.67295
C         29.38302        35.17328         0.62063
C         30.63610        37.28287         0.91788
C         29.40320        37.97787         1.18664
C         30.62738        40.12399         1.18899
C         29.40381        39.39791         1.29661
C         30.60062        41.54861         1.10194
C         29.35429        42.23204         1.14252
C         30.60546        44.37776         0.74695
C         29.27843        43.66365         0.68533
C         30.56354        45.82757         0.34625
C         29.40250        46.61892         1.00988
C         30.61610        48.72324         0.53674
C         29.30152        47.99958         0.35204
C         30.57663        50.14629         0.52250
C         29.38033        50.84723         0.57875
C         29.34756        52.24784         0.29920
C         31.89785        16.74449        -1.54814
C         33.27089        18.83423        -1.74305
C         31.92938        18.11731        -1.75999
C         33.09778        20.16097        -0.99511
C         32.05891        21.05174        -1.71312
C         33.01868        23.04655        -0.35804
C         31.72920        22.29680        -0.85258
C         33.07963        24.53717        -0.66942
C         31.91122        25.27757        -0.89587
C         33.13374        27.37205        -0.58799
C         31.91059        26.69745        -0.80822
C         33.19470        28.86448        -0.76390
C         31.90252        29.52180        -0.30838
C         33.07233        31.50555         0.55011
C         31.89872        31.03142        -0.33933
C         33.05304        33.00551         0.71494
C         31.82199        33.75567         0.40642
C         33.12941        35.86690         0.30915
C         31.84338        35.12944         0.46574
C         33.10753        37.34028         0.57852
C         31.84211        38.01203         0.90425
C         33.09342        40.15578         0.95460
C         31.86315        39.42654         1.04698
C         33.06886        41.57080         0.95714
C         31.83204        42.26336         0.97885
C         33.07070        44.43644         0.83313
C         31.80267        43.70816         0.86062
C         33.03123        45.87707         0.77187
C         31.85493        46.57487         0.60391
C         31.80143        48.00974         0.60335
C         34.36335        20.97277        -0.88335
C         35.53455        23.08118        -0.54540
C         34.32734        22.33029        -0.66745
C         35.55347        24.48273        -0.37883
C         34.30601        25.21785        -0.45314
C         35.57837        27.33624        -0.19595
C         34.33815        26.64593        -0.42652
C         35.58792        28.76705         0.00087
C         34.42438        29.50557        -0.16769
C         35.63363        31.53127         0.74360
C         34.44764        31.01239        -0.04885
C         35.58445        32.92101         1.14573
C         34.33461        33.71702         0.90792
C         35.57264        35.88810         1.15026
C         34.47127        35.11315         0.34172
C         35.61599        37.31064         0.63113
C         34.36557        38.07477         0.78775
C         35.62036        40.19003         0.83901
C         34.35726        39.45276         0.85062
C         35.53901        41.62664         0.89587
C         34.32529        42.30584         0.91181
C         34.26798        43.74278         0.88239
C         36.76870        25.19583        -0.24617
C         38.03295        27.32420         0.01041
C         36.79954        26.60579        -0.12775
C         38.06381        28.70430         0.22561
C         36.83221        29.43569         0.33408
C         38.12449        31.45641         1.05689
C         36.82728        30.79656         0.74799
C         38.18229        32.96643         1.25652
C         36.91360        33.74609         1.34285
C         38.11814        35.86288         0.82252
C         36.89524        35.16442         1.04943
C         38.15088        37.26682         0.76992
C         36.92586        38.06300         0.58234
C         36.83592        39.52025         0.75599
C         39.31156        29.43977         0.27090
C         40.56739        31.56529         0.51377
C         39.35550        30.77881         0.58113
C         40.58947        32.92887         0.62831
C         39.39651        33.71397         0.86021
C         39.34945        35.08330         0.72663
O         27.76524        16.15790        -3.57965
O         22.38725        29.64853        -2.05882
O         31.26475        28.97837         0.85956
O         13.02031        32.32681        -0.82803
O         25.87986        19.60099        -3.97258
O         23.33196         9.83380        -0.10482
O         23.66611        43.98259         3.56492
O         21.11626        23.12741        -3.46753
O         22.41312        46.43245         3.26474
O         20.74845        36.09834         3.01402
O         33.08497        36.77564        -0.83645
O         23.95907        16.06988        -3.85924
O         24.99973        50.78613         2.51303
O         13.34127        36.42683        -0.70252
O         21.76582        30.89784         1.46494
O         24.44275        22.08021        -3.85751
O         21.10197        15.86673        -3.78587
O         36.22538        37.52952        -0.66540
O         21.96032        42.80079         0.71582
O         20.58266        49.98251        -1.28771
O         17.54213        20.23881        -0.64360
O         24.43476        26.36461        -2.99044
O         18.84687        15.48804        -0.00539
O         36.09489        33.29293         2.46768
O         22.26292        48.84730         2.76122
O         15.83282        19.91394        -3.71947
O         18.52098        23.42201         0.16466
O         24.50016        12.36148        -2.19625
O         20.64882        40.81562         3.74046
O         11.37067        28.94317         2.30548
O         38.33219        32.04691         2.38192
O         31.13155        23.95758        -2.74584
O         30.28599        20.79935        -3.40913
O         27.02119        12.51808        -1.96264
O         14.05060        24.29042         1.10935
O         17.26958        37.51596         2.75071
O         24.77197        53.27570         1.95625
O         33.47934        33.50085         2.07205
O         17.97834        47.54336        -1.28392
O         28.18247        44.05892         2.86350
O         19.03279        28.57823         1.45165
O         26.23343        34.19325        -1.41922
O         26.29572        31.85715        -2.20314
O         22.56529        18.55966        -4.18680
O         25.79891        36.07230         2.59493
O         18.64850        56.19671        -3.18673
H         18.93279        55.64616        -3.94467
O         14.02662        21.72777        -3.47654
H         14.39897        21.11644        -4.15408
O         32.64684        19.77583         0.32222
H         32.17455        20.54220         0.72728
O         11.73510        27.07524        -1.30205
H         12.46479        26.82851        -1.90839
O         17.85558        27.76417        -1.96705
H         18.68410        27.89091        -2.49524
O         13.84534        28.30719         2.39469
H         13.04996        28.41553         2.96641
O         25.23016        40.02064         0.03007
H         25.88469        40.51506        -0.50687
O         28.83727        43.61548        -0.70989
H         29.19105        44.42944        -1.15402
O         21.52843        34.36123        -1.10283
H         22.32003        34.79962        -1.48335
O         18.94766        42.62074         3.74625
H         19.19468        41.84590         4.30355
O         10.99720        31.32517         2.60916
H         10.24867        31.78319         3.04285
O         17.27885        35.25817        -0.83115
H         16.46689        34.87944        -1.25553
O         14.79724        38.59361        -0.75461
H         14.56274        37.86293        -1.37444
O         33.76449        19.02919        -3.06677
H         33.41029        19.88804        -3.40435
O         14.34587        38.79961         2.85592
H         14.39950        39.56656         3.46552
O         14.25486        42.30037         3.24381
H         13.39266        42.74003         3.41058
O         29.81420        46.86635         2.38019
H         29.51391        46.11800         2.94093
O         24.98080        39.32017         3.60708
H         24.20519        38.99199         4.12655
O         17.29434        39.57383        -0.33983
H         16.46132        39.28033        -0.79335
O         32.93842        23.03441         1.11025
H         33.75399        23.46096         1.45165
O         10.88109        26.37530         2.18235
H         11.20808        27.06424         2.80497
O         27.26388        52.66592         2.53081
H         26.43290        52.43210         3.00834
O         34.93126        34.94622        -1.00134
H         34.70951        35.77419        -1.48943
O         24.59887         9.84479        -0.75770
H         24.43236        10.32286        -1.61066
O         20.88546        13.34869         1.73188
H         20.48239        14.23688         1.62227
O         22.75912        13.69439        -3.47529
H         22.14904        14.27827        -3.98731
O         26.01686        44.90203         3.79069
H         25.13373        44.96453         4.22657
O         19.14750        52.33150         1.10700
H         19.01086        53.29739         1.20381
O         32.11500        31.50153        -1.69912
H         31.46158        31.06496        -2.28581
O         32.68880        21.51642        -2.92220
H         31.96261        21.77349        -3.54231
O         22.27989        38.95069         3.97480
H         21.84221        39.66054         4.50413
O         32.89204        30.91691         1.84782
H         33.38553        31.47687         2.49134
O         11.54228        30.35644        -0.87042
H         11.69920        31.16620        -1.40887
O         30.97072        21.83550         0.29548
H         31.23814        22.39199         1.06554
O         14.49874        34.80493         2.47403
H         14.73975        35.62748         2.95037
O         30.37478        45.78768        -1.10899
H         31.20004        45.42452        -1.49484
O         34.65032        31.57912        -1.36777
H         33.90440        31.28590        -1.94749
O         26.45433        47.82600        -0.69861
H         27.30068        47.56547        -1.14707
O         29.10228        47.84766        -1.09604
H         29.23711        48.73226        -1.49741
O         30.52423        32.70723         2.10387
H         31.23098        32.04114         2.28714
O         27.09613        29.60957        -2.92740
H         26.56230        30.36044        -3.28084
O         24.47279        29.27293         0.82456
H         25.22665        29.73622         1.24593
O         14.74873        34.08358        -1.07887
H         14.30837        33.37584        -1.60950
O         19.93209        26.35938         0.79740
H         19.28536        25.73788         1.19376
O          9.40353        35.12379         2.52988
H          8.46899        34.91950         2.74787
O         27.11311        58.21768        -3.16324
H         27.04055        57.61064        -3.92769
O         20.38770        27.81077        -2.56501
H         21.10075        28.43668        -2.85064
O         18.12141        15.12495        -3.54382
H         18.36867        15.68316        -4.31117
O         15.59812        44.78333         3.01020
H         15.44351        43.93799         3.49624
O         25.65784        55.55996         1.28339
H         25.08570        55.15023         1.97389
O         12.32266        33.52056         2.58791
H         11.61844        34.02418         3.04960
O         14.02228        18.00873        -4.16925
H         14.45825        18.75455        -4.63997
O         33.24337        29.11805        -2.21940
H         34.04644        28.67518        -2.56888
O         35.14495        35.95202         2.52514
H         35.24430        35.04620         2.90954
O         20.61148        10.37567        -0.42427
H         21.50986        10.01969        -0.62221
H          4.98712        30.94542        -0.20661
H          5.01231        33.41542        -0.14842
H          7.44605        26.69533        -0.23103
H          6.21094        28.78799        -0.10378
H          6.22671        35.51335        -0.02075
H          7.41693        37.68079         0.11841
H          9.85167        22.45212        -0.80915
H          8.65817        24.64772        -0.64841
H          8.60224        39.87176         0.46067
H          9.85620        42.05545         0.59275
H         12.27362        18.33151        -1.92443
H         11.06766        20.32766        -1.26995
H         11.15216        44.16138         0.54011
H         12.43684        46.19704         0.20811
H         14.74028        14.28621        -1.16037
H         13.48580        16.27000        -1.89918
H         13.68798        48.23541        -0.29790
H         14.99719        50.24109        -0.99741
H         17.25317        11.06726         1.59293
H         16.03690        12.52885         0.07481
H         16.32471        52.21374        -1.74153
H         17.55564        54.34499        -2.13687
H         19.70584         8.41588         4.86920
H         18.47678         9.61642         3.14196
H         19.23894        56.68431        -1.28356
H         20.14187        57.99006        -3.88271
H         23.03073         6.99171         8.00845
H         20.91679         7.37873         6.74954
H         23.71081        60.71052        -5.57905
H         21.51226        59.60804        -5.16057
H         25.18147         7.93666         7.19573
H         26.44459         9.24787         5.51548
H         25.99714        58.88659        -1.57638
H         25.73497        59.99102        -4.29707
H         27.71763        10.41775         3.77173
H         29.00929        11.56240         2.03878
H         29.08084        54.60061        -0.77222
H         27.96652        56.58508        -1.61886
H         30.29524        12.52970         0.13499
H         31.53179        14.16443        -0.92414
H         31.52251        50.70586         0.45752
H         30.25209        52.71092        -0.12589
H         32.83021        16.20014        -1.33838
H         34.00922        18.19406        -1.19341
H         33.97751        46.42846         0.88681
H         32.74846        48.56179         0.71467
H         35.33618        20.46955        -0.99812
H         36.49159        22.54320        -0.62261
H         36.47555        42.20481         0.87597
H         35.21531        44.30313         0.86308
H         37.71458        24.63451        -0.22349
H         38.97871        26.76455        -0.04287
H         39.12437        37.77980         0.76049
H         37.77133        40.09504         0.84007
H         40.23792        28.91182        -0.00340
H         41.50432        31.03335         0.28863
H         41.53925        33.46595         0.48634
H         40.27254        35.62461         0.46803
