         618
 CSIRO Nanostructure Databank - Neutral Graphene Oxide Data Set
C         23.46273        69.84336         2.87486
C         23.49406        71.30979         2.51713
C         22.30337        72.02370         2.42725
C         23.51076        74.10064         2.10551
C         22.31282        73.41518         2.20652
C         25.91957        65.56763         2.29833
C         25.91049        66.95147         2.32425
C         24.74764        67.72042         2.62692
C         25.95672        69.83691         2.33070
C         24.74192        69.10445         2.55557
C         25.97796        71.26853         2.36269
C         24.73356        71.98955         2.37253
C         25.99483        74.07948         2.10939
C         24.74217        73.40133         2.18812
C         28.17456        61.32749         1.20339
C         28.19885        62.71956         1.27859
C         27.05259        63.46025         1.74092
C         28.20275        65.63515         1.24936
C         27.05341        64.83473         1.81436
C         28.42088        66.94071         1.94909
C         27.12208        67.67237         1.80833
C         28.39781        69.81481         2.22309
C         27.17626        69.13989         2.12011
C         28.46088        71.24493         2.31382
C         27.20884        71.97008         2.29095
C         28.47317        74.19585         2.18436
C         27.19326        73.39724         2.19486
C         30.45301        56.99288         0.34126
C         30.44947        58.41102         0.34374
C         29.30250        59.16314         0.72101
C         30.54151        61.28010         0.55818
C         29.32645        60.57509         0.81818
C         30.59402        62.70737         0.67156
C         29.41385        63.43913         0.98010
C         30.70335        65.53038         0.94276
C         29.47430        64.86035         1.03318
C         30.70486        67.04042         0.94867
C         29.58063        67.61198         1.77706
C         30.96318        69.72612         2.10975
C         29.65302        69.02795         2.19161
C         30.99028        71.20759         2.31641
C         29.70016        71.94080         2.32274
C         30.92081        74.04715         1.96643
C         29.74456        73.36982         2.15667
C         32.90329        52.69560        -0.20877
C         32.85436        54.12536        -0.18989
C         31.66399        54.83227         0.05381
C         32.82376        56.96085        -0.31108
C         31.62372        56.25342         0.04175
C         32.81988        58.39545        -0.36716
C         31.64798        59.11396        -0.01787
C         32.87667        61.24126        -0.15131
C         31.69465        60.55363         0.10906
C         33.03319        62.63635         0.24803
C         31.82489        63.40739         0.53110
C         33.16950        65.50363         0.47457
C         31.91287        64.80761         0.68404
C         33.29443        66.88219         1.08384
C         32.04264        67.71168         1.16335
C         33.32424        69.83182         1.19283
C         32.14214        69.03125         1.52445
C         33.36218        71.19493         1.35847
C         32.30373        71.92843         2.11895
C         33.36281        74.13213         1.40022
C         32.29037        73.46133         2.19941
C         35.11765        48.27933        -0.51730
C         34.96154        49.63381        -0.08707
C         34.01926        50.55158        -0.49776
C         35.36552        52.72023        -0.28452
C         34.09976        51.98880        -0.25177
C         35.32342        54.12139        -0.60369
C         34.06261        54.83349        -0.50712
C         35.16127        56.96483        -1.14283
C         33.99877        56.23577        -0.62485
C         35.20196        58.42366        -0.99306
C         34.02137        59.10101        -0.69402
C         35.29355        61.28590        -0.94164
C         33.96225        60.58199        -0.92717
C         35.35485        62.71360        -0.90405
C         34.30580        63.39012        -0.12271
C         35.50081        65.53118        -0.47918
C         34.29831        64.85747        -0.03951
C         35.61684        66.96136        -0.11452
C         34.50029        67.67748         0.57362
C         35.57439        69.88592        -0.06572
C         34.28033        69.14665         0.22288
C         35.56820        71.32600         0.07183
C         34.25780        71.99771         0.42845
C         35.57044        74.17985         0.43858
C         34.39885        73.46270         0.78760
C         37.74171        44.13630        -0.40647
C         37.70957        45.52918        -0.49940
C         36.45047        46.20396        -0.53540
C         37.63165        48.31318        -0.95541
C         36.36706        47.59559        -0.56873
C         38.09386        50.25582         0.66219
C         36.85130        50.84062         0.50305
C         37.85572        52.81957        -0.43153
C         36.64961        52.11607        -0.11250
C         37.80052        54.18606        -0.84253
C         36.52045        54.81790        -0.90996
C         37.70591        57.02601        -1.36574
C         36.46349        56.22565        -1.34172
C         37.66808        58.39864        -1.33125
C         36.42944        59.11778        -1.18264
C         37.58734        61.22688        -1.83130
C         36.44305        60.54210        -1.19854
C         37.48260        62.70371        -2.16014
C         36.41166        63.45874        -1.45559
C         37.45542        65.69301        -2.13549
C         36.48128        64.88271        -1.25531
C         37.78744        67.06922        -1.51450
C         36.76705        67.74552        -0.65392
C         37.75663        69.99202        -1.20468
C         36.67674        69.22253        -0.57030
C         37.75458        71.48531        -1.06064
C         36.67254        72.08566        -0.26206
C         37.97208        74.17178        -0.10163
C         36.75255        73.51972         0.01390
C         40.22463        39.90035         0.12691
C         40.18280        41.31104         0.09141
C         38.97823        42.02054        -0.14834
C         40.18085        44.16871        -0.05629
C         38.95628        43.42279        -0.20651
C         40.17320        45.59250        -0.20572
C         38.95228        46.28532        -0.44597
C         40.16845        48.43708        -0.51857
C         38.94803        47.69441        -0.60061
C         40.23035        49.88907        -0.55121
C         39.20481        50.73216        -0.10534
C         40.26133        52.80097        -0.93168
C         39.11628        52.13367        -0.48607
C         40.25194        54.21311        -1.17026
C         39.00309        54.88347        -1.15093
C         40.22679        57.06213        -1.49194
C         38.96002        56.27835        -1.72200
C         40.19822        58.44591        -1.45196
C         38.93441        59.19649        -1.12803
C         40.07379        61.29578        -1.82383
C         38.91243        60.58425        -1.72553
C         40.07602        62.69359        -2.35686
C         38.73396        63.37445        -2.75328
C         40.07530        65.68462        -2.62439
C         38.75127        64.93908        -2.58098
C         40.12829        67.19806        -2.52008
C         38.86876        67.93299        -2.10945
C         40.18483        70.02328        -1.82614
C         38.99848        69.31994        -1.63419
C         40.27048        71.44998        -1.55361
C         39.00852        72.28916        -1.36941
C         40.44892        74.18257        -0.64615
C         39.22674        73.37049        -0.30710
C         42.74705        35.66934         0.43482
C         42.69758        37.08042         0.54035
C         41.48400        37.79018         0.34193
C         42.62793        39.95223         0.66333
C         41.42938        39.20171         0.37366
C         42.58661        41.35548         0.64777
C         41.39361        42.05562         0.31361
C         42.61686        44.22828         0.32961
C         41.38636        43.47999         0.21746
C         42.62348        45.63461         0.10331
C         41.40049        46.32512        -0.16232
C         42.67285        48.42447        -0.41478
C         41.41486        47.73146        -0.39524
C         42.78885        49.80054        -1.03762
C         41.44283        50.52618        -1.12379
C         42.75925        52.73611        -1.09323
C         41.47771        52.01929        -1.22265
C         42.76078        54.13490        -1.66131
C         41.47758        54.92055        -1.40574
C         42.67394        57.11030        -1.44436
C         41.47462        56.34541        -1.50005
C         42.64805        58.52705        -1.37407
C         41.40313        59.21816        -1.45917
C         42.55589        61.38389        -1.43750
C         41.36101        60.64295        -1.55850
C         42.48899        62.91107        -1.40262
C         41.33830        63.49412        -2.21878
C         42.61508        65.65379        -2.76202
C         41.32473        64.96411        -2.38843
C         42.64876        67.14986        -2.36725
C         41.41205        67.90702        -2.36786
C         42.62782        70.06948        -2.35977
C         41.38983        69.29628        -2.18336
C         42.69389        71.51335        -2.01975
C         41.46975        72.15292        -1.60567
C         42.76751        74.28809        -1.43280
C         41.52498        73.57696        -1.24812
C         45.23830        32.87232         0.58030
C         44.02193        33.54365         0.45341
C         45.17173        35.67859         0.83503
C         43.96204        34.95865         0.57393
C         45.13685        37.09676         0.98020
C         43.90002        37.80603         0.83253
C         45.03649        39.93879         1.23227
C         43.86427        39.24072         0.92489
C         45.06017        41.40417         1.31659
C         43.77737        42.14511         1.01438
C         45.05738        44.26441         0.57328
C         43.82889        43.56989         0.61721
C         45.07306        45.65079         0.34535
C         43.85400        46.34815         0.15843
C         45.09578        48.51219         0.12665
C         43.86056        47.76649        -0.08684
C         44.97315        49.98188         0.27238
C         43.84516        50.66864        -0.36573
C         44.99996        52.89815         0.03739
C         43.86831        52.06710        -0.56094
C         45.14663        54.26155        -0.59679
C         44.03034        54.91886        -1.31317
C         45.08784        57.21135        -0.76340
C         43.97533        56.43074        -1.33514
C         45.06055        58.58695        -0.77636
C         43.84451        59.29133        -1.14449
C         45.01140        61.48169        -0.90337
C         43.77034        60.70268        -1.15216
C         45.03850        62.93078        -1.32193
C         43.79224        63.58692        -1.79745
C         45.14106        65.50882        -2.46059
C         43.83198        64.84437        -2.31265
C         45.11327        67.02051        -2.24234
C         43.85162        67.80110        -2.17103
C         45.15174        70.09807        -2.05468
C         43.93681        69.28141        -2.30546
C         45.15764        71.53336        -2.43456
C         43.87455        72.23430        -2.15485
C         45.19737        74.36609        -1.85566
C         43.92258        73.64916        -1.83424
C         46.42215        33.56739         0.82515
C         47.61034        35.71362         1.18004
C         46.41523        34.98338         0.95900
C         47.59444        37.11488         1.33000
C         46.33939        37.78781         1.27885
C         47.58643        40.01481         1.64542
C         46.27269        39.22258         1.53580
C         47.54152        41.45455         1.29224
C         46.34997        42.09788         1.10488
C         47.54143        44.26311         0.98203
C         46.34928        43.48053         0.48320
C         47.54779        45.73802         0.80672
C         46.37898        46.37761         0.08514
C         47.53347        48.61500         0.61326
C         46.30760        47.87556         0.31650
C         47.51897        49.99400         0.67028
C         46.26411        50.75972         0.55457
C         47.53746        52.86514         0.15012
C         46.32485        52.18198         0.18304
C         47.55921        54.30221        -0.08039
C         46.30446        54.97165        -0.37781
C         47.57736        57.19727        -0.21755
C         46.27454        56.45172        -0.33241
C         47.56555        58.63632        -0.50123
C         46.26451        59.37168        -0.26649
C         47.51098        61.42988        -1.01209
C         46.29996        60.77099        -0.81702
C         47.55399        62.83195        -1.37336
C         46.35515        63.52659        -1.62618
C         47.62650        65.58226        -2.04167
C         46.40006        64.85251        -2.07896
C         47.58257        67.00782        -1.85029
C         46.32386        67.50409        -1.61879
C         47.61778        70.13735        -1.56720
C         46.27673        69.61670        -1.46157
C         47.67381        71.55826        -1.72249
C         46.45268        72.27504        -2.19132
C         47.73881        74.43242        -2.04914
C         46.39644        73.74027        -1.97358
C         48.81633        37.87541         1.40279
C         50.05220        40.01128         1.27805
C         48.84461        39.26500         1.42497
C         50.07297        41.40663         1.16818
C         48.81587        42.15580         1.11607
C         50.07074        44.25160         0.59212
C         48.82411        43.51977         1.00274
C         50.04729        45.73411         0.89482
C         48.84381        46.45572         0.80887
C         49.98811        48.58270         1.05188
C         48.80749        47.89078         0.81445
C         50.01241        50.05939         1.14595
C         48.70062        50.83103         1.11699
C         50.00331        52.84394         0.22638
C         48.78932        52.18084         0.40705
C         50.02627        54.25882        -0.12796
C         48.77229        54.98677        -0.16270
C         49.97495        57.07754        -0.71650
C         48.82722        56.42751        -0.37422
C         50.00726        58.53899        -1.10319
C         48.73583        59.29102        -0.78446
C         49.99945        61.41127        -0.96296
C         48.75934        60.71707        -0.92965
C         50.02033        62.82239        -1.15509
C         48.80371        63.51995        -1.45355
C         50.04336        65.69014        -1.46084
C         48.83735        64.91835        -1.70122
C         50.05027        67.10619        -1.43762
C         48.83063        67.87205        -1.88331
C         50.01001        70.01215        -1.19330
C         48.76923        69.33813        -1.42162
C         50.01669        71.45670        -1.06277
C         48.83939        72.22028        -1.37816
C         50.13219        74.34088        -1.15366
C         48.77762        73.71633        -1.15107
C         51.29244        42.13971         1.15802
C         52.52153        44.27339         1.08995
C         51.33149        43.53750         1.01893
C         52.53017        45.69629         1.04111
C         51.27541        46.39763         1.07247
C         52.57399        48.58176         1.03311
C         51.24839        47.84876         1.25390
C         52.47748        49.92884         0.34269
C         51.29840        50.75649         0.81267
C         52.48270        52.75947         0.03392
C         51.27352        52.16059         0.33931
C         52.49735        54.16897        -0.38195
C         51.21701        54.90021        -0.40731
C         52.37653        57.09910        -0.13219
C         51.27264        56.33633        -0.87354
C         52.36868        58.58408        -0.21368
C         51.23669        59.27050        -0.57692
C         52.41464        61.45506        -0.53385
C         51.22726        60.71781        -0.67848
C         52.44912        62.85687        -0.76883
C         51.24122        63.54966        -1.06691
C         52.47002        65.68793        -1.02099
C         51.24880        64.97598        -1.17894
C         52.45808        67.11595        -0.98579
C         51.24154        67.82710        -1.14704
C         52.41157        69.95618        -0.59877
C         51.21919        69.27525        -1.00744
C         52.39823        71.39725        -0.42499
C         51.20626        72.13239        -0.70883
C         52.42541        74.26086        -0.36669
C         51.25395        73.59944        -0.74920
C         53.75710        46.40837         0.93238
C         54.99814        48.54262         0.61083
C         53.80849        47.80267         0.79417
C         55.00993        49.96210         0.55175
C         53.77546        50.69529         0.41233
C         54.99261        52.82744         0.31952
C         53.75316        52.06962         0.22056
C         55.00941        54.20613         0.23685
C         53.79677        54.93408        -0.18800
C         54.91613        57.17848         0.24208
C         53.66256        56.39009         0.15783
C         54.89084        58.55156         0.17136
C         53.61203        59.29444         0.15626
C         54.93093        61.48747        -0.33600
C         53.64754        60.79521        -0.07069
C         54.93856        62.82000        -0.62014
C         53.69377        63.57504        -0.72566
C         54.98455        65.73107        -1.04637
C         53.69540        64.96148        -0.87275
C         54.86173        67.11683        -0.48197
C         53.67181        67.81606        -0.60816
C         54.80250        69.92434         0.07595
C         53.60475        69.23833        -0.34861
C         54.76988        71.37087         0.26527
C         53.56133        72.07217         0.00805
C         54.80983        74.22447         0.36327
C         53.48182        73.53014         0.39120
C         56.21598        50.69905         0.63257
C         57.43844        52.82835         0.74160
C         56.22979        52.10388         0.58573
C         57.54013        54.22972         0.65570
C         56.21296        55.01290         0.68180
C         57.28417        57.17979        -0.14699
C         56.15446        56.44198         0.16642
C         57.40641        58.57603         0.04761
C         56.15375        59.36879         0.33910
C         57.46394        61.39901        -0.28017
C         56.17287        60.64139        -0.52546
C         57.46060        62.78716        -0.41843
C         56.24454        63.50960        -0.95565
C         57.38452        65.66558        -0.26370
C         56.22034        64.98056        -0.61149
C         57.34694        67.07025         0.01840
C         56.00327        67.71205         0.27271
C         57.17959        69.85815         0.79241
C         55.98692        69.21542         0.24204
C         57.11294        71.35046         1.11454
C         55.92579        72.07715         0.67128
C         57.22515        74.23136         0.80120
C         55.97256        73.52766         0.59515
C         58.80015        54.82283         0.91741
C         59.96589        57.13133         0.95484
C         59.12170        56.14470         0.48466
C         59.89523        58.52317         0.52449
C         58.65272        59.21269         0.16489
C         59.88336        61.35507         0.11109
C         58.66102        60.66536         0.05585
C         59.91487        62.78407        -0.21853
C         58.65785        63.54208        -0.25931
C         59.86957        65.67724         0.05667
C         58.66229        64.95217        -0.18291
C         59.82743        67.11896         0.21454
C         58.53614        67.80872         0.23506
C         59.66984        70.01521         0.40547
C         58.47829        69.19115         0.55163
C         59.62325        71.48864         0.71485
C         58.40931        72.10542         1.40621
C         59.62059        74.29386         1.43472
C         58.39251        73.59791         1.14561
C         61.04991        59.28788         0.69930
C         62.30692        61.41492         0.63582
C         61.10181        60.68884         0.44752
C         62.37991        62.81355         0.52262
C         61.20942        63.54694         0.00027
C         62.31559        65.67055         0.50892
C         61.11869        64.99972         0.20907
C         62.31429        67.13625         0.49369
C         61.00876        67.81642         0.44590
C         62.18303        69.97453         1.01643
C         61.04309        69.28124         0.38392
C         62.03566        71.37241         1.45110
C         60.88857        72.22264         1.03205
C         62.06154        74.26629         1.91047
C         60.83486        73.62186         1.55855
C         63.52855        63.56112         0.84900
C         64.74347        65.71418         1.02733
C         63.53233        64.97129         0.78100
C         64.81250        67.08180         1.19981
C         63.55716        67.88937         0.97436
C         64.30827        69.95824         2.21252
C         63.27689        69.26269         1.49368
C         64.47317        71.32410         2.19079
C         63.24482        72.09385         2.03097
C         64.51496        74.16951         2.38959
C         63.27207        73.57376         2.05664
C         66.12581        67.72902         1.24595
C         67.33483        69.91608         1.95369
C         66.30834        68.91254         1.92356
C         67.10765        71.26158         2.28212
C         65.80337        72.01845         1.99266
C         66.91100        74.10146         2.87724
C         65.72610        73.45258         2.49330
C         68.23661        72.06602         2.59546
C         68.13693        73.41852         2.90702
O         53.37350        54.52103        -1.54152
O         58.38437        56.50671        -0.66461
O         56.88067        70.34860         2.18385
O         37.99988        67.11709        -0.07452
O         34.14435        62.79369         1.22287
O         44.88626        62.55832         0.11147
O         52.66876        56.61017         1.21914
O         53.50610        60.23673         1.29892
O         43.34198        69.71717        -3.57958
O         44.22465        41.95051         2.40762
O         47.25648        45.14517         2.11994
O         62.18730        71.54442         2.90497
O         35.79907        50.05088         0.98610
O         60.33863        72.21998        -0.32450
O         46.00001        71.91769        -3.56537
O         27.69222        66.20524        -0.06182
O         35.57338        56.49002        -2.48522
O         39.26211        65.41040        -3.86048
O         60.81191        63.11619        -1.34713
O         37.54744        49.31539        -1.66283
O         45.28461        50.47446         1.63135
O         63.24717        67.78260        -0.45719
O         46.80298        56.87478         0.99758
O         31.94601        71.42135         3.44025
O         37.22162        70.87466        -2.29157
O         30.50859        69.12577         3.39078
O         50.90418        50.59073         2.20135
O         46.86661        39.63867         2.83945
O         44.47243        55.66214        -2.51437
O         37.05282        61.69440        -3.12304
O         41.05243        62.76345        -3.46968
O         45.30884        66.42963        -3.58124
O         46.15145        68.48307        -0.64937
O         65.27065        69.17816         2.83509
O         52.06714        48.40019         2.36383
O         60.42731        69.78803        -0.82758
O         27.01011        67.50784         0.28279
O         35.65235        67.29632         1.35804
O         41.27407        51.15823        -2.44042
O         39.21923        67.80204        -3.50438
O         38.78000        72.96915        -2.62279
H         38.34880        72.31832        -3.22212
O         56.15451        60.23062        -1.92045
H         56.22310        61.04634        -2.46585
O         52.20995        49.64194        -1.06599
H         53.04514        49.33987        -1.48189
O         51.62234        56.35797        -2.29302
H         52.35680        55.69966        -2.41523
O         56.36139        63.40414        -2.43614
H         57.25614        63.73269        -2.67594
O         39.49869        72.65360         0.94359
H         39.62737        73.31910         1.65156
O         38.99571        59.42597         0.32881
H         39.13220        58.55851         0.76548
O         38.88845        56.10277        -3.18228
H         38.01252        55.71315        -3.39354
O         55.71835        67.40282         1.70934
H         56.16160        68.09292         2.25161
O         56.00848        55.20114         2.13422
H         55.99061        54.31258         2.55039
O         42.66853        65.68573        -4.21959
H         43.52646        66.10756        -4.46413
O         32.60675        73.84552         3.57917
H         32.31217        73.09030         4.14497
O         55.13008        65.89450        -2.50806
H         55.34589        64.99737        -2.86395
O         49.03521        68.06272        -3.34038
H         49.12824        67.17446        -3.74732
O         28.46310        75.13444         1.09758
H         28.39379        74.63268         0.25986
O         33.50875        60.71245        -2.34645
H         34.24080        60.38894        -2.91711
O         30.31167        67.44725        -0.41266
H         29.41114        67.07233        -0.58265
O         46.09095        59.50316         1.18233
H         46.23487        58.59891         1.55723
O         36.71053        65.96658        -3.33790
H         37.36398        66.03417        -4.07403
O         33.57442        69.11440        -1.05229
H         33.37372        70.05425        -1.28780
O         46.55842        43.26744        -0.95142
H         46.65400        44.16234        -1.36399
O         33.50594        71.98109        -0.85345
H         34.04027        72.47880        -1.51044
O         44.54488        53.16355         1.41284
H         44.67963        52.31989         1.91216
O         56.22037        59.78137         1.73038
H         55.30047        60.02698         1.99899
O         48.26228        73.89705         0.21587
H         48.93538        73.54757         0.83845
O         50.10702        58.59256        -2.56110
H         50.73127        57.87693        -2.83664
O         22.33756        69.18744         2.27749
H         22.45152        69.20907         1.30539
O         46.67289        46.16059        -1.34228
H         45.99217        46.63733        -1.86502
O         38.17759        49.11600         1.40427
H         37.26679        48.92470         1.72857
O         53.04789        73.55156         1.82381
H         53.73915        73.07656         2.33431
O         48.17871        74.41627        -3.41214
H         47.81089        73.62248        -3.85480
O         58.69028        71.97747         2.82498
H         58.12256        71.24876         3.17233
O         38.60302        63.14055        -4.16087
H         39.45922        63.39089        -4.57649
O         42.75133        53.91962        -3.10718
H         43.25244        54.67128        -3.50671
O         33.54542        66.56682         2.49133
H         34.52601        66.48492         2.58717
O         48.38468        51.18685         2.49470
H         49.24526        51.29798         2.96222
O         43.26395        49.56097        -2.39417
H         42.77005        50.20324        -2.96524
O         50.06508        44.19624        -0.88419
H         50.13772        43.25197        -1.14137
O         42.23018        63.28983        -0.02357
H         43.03890        63.03976         0.48896
O         65.88163        72.15538         0.52080
H         65.27176        72.87580         0.25172
H         23.51988        75.19009         1.95885
H         26.00568        75.17298         1.99162
H         28.49730        74.81544         3.12341
H         30.86950        75.13670         1.81725
H         33.46776        75.21604         1.56788
H         35.61206        75.25657         0.66202
H         38.03630        75.25131         0.10419
H         40.52175        75.22666        -0.30354
H         42.79901        75.35632        -1.17019
H         45.16378        75.45685        -1.70697
H         47.65758        75.49993        -1.72142
H         50.20584        75.43871        -1.19451
H         52.47802        75.35787        -0.43588
H         54.82650        75.32438         0.33807
H         57.21477        75.32585         0.68464
H         59.58422        75.38493         1.57951
H         62.04885        75.35462         2.07811
H         64.53926        75.25342         2.58502
H         66.87238        75.16124         3.16905
H         23.30208        69.77525         3.98988
H         21.34861        71.49002         2.53530
H         21.35994        73.95809         2.13620
H         25.02757        65.00807         2.61979
H         23.81446        67.19620         2.88199
H         27.24566        60.79094         1.44757
H         26.16696        62.89852         2.07507
H         29.53249        56.45475         0.61292
H         28.37149        58.62872         0.96337
H         31.95549        52.13810        -0.17419
H         30.74484        54.27228         0.28211
H         34.21445        47.73324        -0.83891
H         33.20702        50.21201        -1.15969
H         36.79834        43.57298        -0.46305
H         35.53505        45.60274        -0.41852
H         39.30197        39.33025        -0.05656
H         38.04310        41.45928        -0.29123
H         41.82085        35.11587         0.22066
H         40.56711        37.22412         0.12075
H         45.26426        31.77771         0.48308
H         43.09815        32.98059         0.25837
H         47.37281        33.02325         0.91792
H         48.56865        35.17535         1.22431
H         49.76577        37.32749         1.30566
H         51.00550        39.46148         1.26237
H         52.23357        41.59536         1.33069
H         53.47759        43.74351         1.21882
H         54.68981        45.83019         0.85526
H         55.95936        48.00750         0.60482
H         57.16333        50.15902         0.77667
H         58.36651        52.24930         0.86928
H         59.57494        54.20370         1.39855
H         60.71267        56.88552         1.72510
H         61.97081        58.78712         1.03433
H         63.20310        60.86305         0.95756
H         64.44468        63.03537         1.15656
H         65.67349        65.13184         1.11477
H         66.93971        67.27382         0.66155
H         68.37942        69.60393         1.78560
H         69.21905        71.57541         2.66780
H         69.04351        73.96625         3.20068
