         280
 CSIRO Nanostructure Databank - Neutral Graphene Oxide Data Set
C         31.31793        31.67001         2.51366
C         31.29184        32.93439         2.47425
C         30.69009        36.21996         1.62155
C         30.70251        37.36577         1.15130
C         30.39116        40.28100        -0.05720
C         30.27512        41.51154        -0.26461
C         32.95227        28.98887         1.12663
C         32.07249        29.67427         1.74935
C         32.73353        31.81303         0.12143
C         31.26713        30.30251         2.65218
C         32.92074        33.20587         0.61182
C         31.68105        33.83780         1.30037
C         32.86078        35.96328         0.62442
C         31.91325        35.31275         1.70145
C         33.02632        37.51088         0.69829
C         31.66264        38.19870         0.49133
C         32.65106        40.15235        -0.85697
C         31.52179        39.40884        -0.10490
C         32.75214        41.64080        -0.33718
C         31.34255        42.42554        -0.43496
C         32.65085        44.41455        -0.76001
C         31.54418        43.75658        -0.62744
C         35.42966        27.39512         0.09121
C         35.08069        28.77531        -0.41223
C         34.19115        29.60452         0.52255
C         35.25711        31.68173        -0.44230
C         33.97869        30.98436        -0.11741
C         35.27925        33.21053        -0.39025
C         34.11168        33.83168         0.40014
C         35.52014        36.05056         0.70967
C         34.22016        35.28674         0.75537
C         35.50245        37.52107         0.27654
C         34.13463        37.95049        -0.29390
C         35.29204        40.24171        -0.90200
C         34.03934        39.42633        -0.75687
C         35.19856        41.72344        -1.17418
C         33.89424        42.42186        -1.00081
C         35.19371        44.60010        -0.85166
C         33.92884        43.93475        -0.91729
C         35.32230        46.01246        -0.52551
C         37.76189        27.20047        -0.70485
C         36.42470        26.74982        -0.23224
C         37.73067        28.75278        -0.57074
C         36.49608        29.48194        -0.47958
C         37.78138        31.57005        -0.34721
C         36.52964        30.88044        -0.37551
C         37.81683        32.98976        -0.22948
C         36.56524        33.68017         0.28662
C         37.95958        35.66424         0.45703
C         36.69403        35.18469         0.38191
C         37.97646        37.84914         0.29995
C         36.61978        38.30621         0.04218
C         37.78033        40.30841        -0.89151
C         36.61351        39.65828        -0.54610
C         37.79037        41.75788        -1.28674
C         36.48397        42.50878        -1.28066
C         37.61649        44.53888        -0.12448
C         36.43363        43.95260        -0.91732
C         37.72311        46.09325        -0.15666
C         36.39042        46.58664        -0.26146
C         40.16148        24.66163         0.84213
C         39.09773        25.33687         0.55767
C         40.15965        27.37048         0.16130
C         38.91032        26.59300         0.05044
C         40.25613        28.62823        -0.69367
C         38.95943        29.42384        -0.57740
C         40.24482        31.56123        -0.50481
C         39.00835        30.85060        -0.49423
C         40.25894        32.96033        -0.44511
C         39.02954        33.66550        -0.37856
C         40.29720        35.93379        -0.75899
C         38.95435        35.16257        -0.56649
C         40.29660        37.40691        -0.32253
C         39.06470        38.21304        -0.41824
C         40.37210        40.27454        -0.79349
C         39.07195        39.52189        -1.14660
C         40.36572        41.76794        -0.83131
C         39.11548        42.59219        -1.18734
C         40.26934        44.64230        -0.13754
C         38.99495        43.85943        -0.30998
C         40.26642        46.16386        -0.20315
C         38.87699        46.78808         0.02562
C         40.14226        48.86328         0.36526
C         39.10480        48.18774         0.20184
C         42.74758        24.57955         0.43721
C         41.44072        25.12099         0.64184
C         42.72368        27.28381        -0.02517
C         41.50645        26.61524         0.45473
C         42.71983        28.70839        -0.12486
C         41.52362        29.38715        -0.36201
C         42.69078        31.55343        -0.01555
C         41.55777        30.83492        -0.74579
C         42.71374        33.01552        -0.35632
C         41.52487        33.71403        -0.41725
C         42.71716        35.85739        -0.11242
C         41.52193        35.16241        -0.31469
C         42.71310        37.33312         0.30734
C         41.46290        38.06663        -0.11983
C         42.80578        40.23648        -0.10787
C         41.43949        39.57162         0.08762
C         42.78093        41.71765         0.04327
C         41.53036        42.50018        -0.20994
C         42.69717        44.59117         0.47642
C         41.62704        44.00317        -0.48508
C         42.57178        46.00268         0.98932
C         41.41577        46.85012         0.54592
C         42.66990        48.75164         1.15481
C         41.40779        48.23553         0.68758
C         43.74588        25.11639        -0.06486
C         45.08625        27.18635         0.61368
C         44.04513        26.56573        -0.32438
C         45.16289        28.71279         0.35097
C         44.01492        29.42602         0.02643
C         45.21570        31.62592        -0.03421
C         44.03136        30.86599        -0.10321
C         45.26824        33.03220        -0.28505
C         43.98705        33.72516        -0.67448
C         45.16322        35.86465        -0.38965
C         43.95534        35.15946        -0.23678
C         44.94104        37.27289        -0.65799
C         43.92862        38.06939        -0.20434
C         45.30706        40.37967        -0.46099
C         43.97872        39.53912        -0.27221
C         45.26391        41.59120         0.53420
C         44.08436        42.45682         0.11191
C         45.17447        44.35203         1.40365
C         44.04858        43.91011         0.45157
C         45.10393        45.88493         1.73630
C         43.84280        46.66505         1.57450
C         43.69867        48.12206         1.42984
C         47.49726        27.37460         0.71451
C         46.50424        26.68993         0.42607
C         47.73380        28.78341         0.76392
C         46.39812        29.46572         0.69708
C         47.73533        31.72391         0.49612
C         46.42665        30.97072         0.49840
C         47.78816        32.99374        -0.35563
C         46.47255        33.78675        -0.29110
C         47.75337        35.98487        -0.16297
C         46.44365        35.20667        -0.44678
C         47.89511        37.45744        -0.55423
C         46.77889        38.37323        -0.71787
C         47.93940        40.46629        -0.27025
C         46.64435        39.65281        -0.28652
C         47.85093        41.63552         0.75249
C         46.55276        42.43530         0.60913
C         47.89309        44.55405         0.91336
C         46.51971        43.75679         0.93328
C         47.52209        45.89884         1.43203
C         46.45686        46.43617         1.71318
C         50.22878        28.92464         0.95731
C         48.91088        29.46586         0.87204
C         50.36094        31.60695         0.51934
C         49.01814        30.97331         0.77077
C         50.37902        33.09645         0.24437
C         49.07616        33.81200        -0.11866
C         50.09087        35.91240        -1.06877
C         49.00451        35.23979        -0.59638
C         50.33441        37.39177        -1.04611
C         49.09140        38.09252        -0.61234
C         50.48119        40.10987        -0.57765
C         49.18057        39.52051        -0.10708
C         50.31105        42.17068         0.36094
C         49.10732        42.48199         0.89447
C         50.33004        44.37006         1.75731
C         48.94777        43.77435         1.72771
C         51.33388        29.48891         1.04927
C         52.73187        31.69042         0.95809
C         51.53011        30.90028         0.84091
C         52.72495        32.90594         0.68442
C         51.76632        33.72669         0.03231
C         52.94658        35.88234        -0.56616
C         52.05011        34.78747        -0.78712
C         52.78805        37.11541        -0.55316
C         51.75180        38.04085        -0.05212
C         52.63828        40.58753        -0.07758
C         51.71479        39.52384        -0.39796
C         52.71897        41.80666         0.19422
C         51.66407        42.51043         1.02559
C         51.41226        43.98791         1.27837
O         49.57513        33.83267         1.26091
O         34.90791        35.64340         1.99840
O         39.68402        43.91701         0.97466
O         46.16558        30.38096         1.81882
O         34.72472        39.50327        -2.04963
O         34.38698        31.16468        -1.50766
O         41.87238        42.14263         1.14172
O         34.29938        41.96958        -2.32154
O         44.24368        46.16203         2.86638
O         40.86908        40.97205        -1.97186
O         48.30939        31.73997         1.81746
O         50.41096        41.46411        -0.84322
O         37.13663        42.11108        -2.54511
O         40.78349        27.41500         1.45407
O         38.17267        36.80829         1.21583
O         31.62804        31.36192        -0.15368
O         44.41656        43.46989        -0.88488
O         45.80656        37.85688        -1.57354
O         42.17795        44.85242         1.80537
O         51.06307        35.13664        -1.74029
O         37.91351        26.91232        -2.11455
H         37.92083        25.93823        -2.23125
O         34.95764        29.86841         1.71980
H         35.12606        29.01371         2.17222
O         30.56962        33.76714         0.43401
H         30.51198        32.84682         0.07906
O         37.21534        44.23697         1.23790
H         38.02734        44.27072         1.79877
O         47.87130        32.49183        -1.72225
H         47.52577        33.17484        -2.33520
O         40.55330        36.02482        -2.18876
H         39.68648        36.17412        -2.63395
O         39.36609        43.15777        -2.48570
H         39.63892        42.43295        -3.08875
O         34.01725        37.17474        -1.51065
H         34.44046        37.70977        -2.22726
O         45.26100        40.93525        -1.79682
H         45.21819        40.18647        -2.42971
O         36.45463        33.24240         1.67665
H         35.99329        33.95598         2.18163
O         44.90270        43.68148         2.65992
H         44.25654        44.23937         3.15768
O         48.01769        41.03315        -1.58887
H         47.11631        41.35166        -1.84337
O         40.53575        46.43913        -1.61810
H         40.46993        47.41035        -1.75470
O         33.48899        37.90322         1.99555
H         33.12929        37.28001         2.66868
O         48.35590        44.61875        -0.41840
H         47.73847        45.15267        -0.95800
O         32.48637        35.40223         2.98501
H         32.01971        34.77587         3.58204
O         47.75723        36.06584         1.29891
H         48.32336        35.34093         1.65282
O         35.25614        33.73074        -1.73103
H         34.65004        33.15862        -2.25522
O         44.98417        41.04155         1.82812
H         44.90984        41.79784         2.46028
O         38.23612        35.36194        -1.83469
H         37.44023        34.78403        -1.85274
O         39.07024        39.26504        -2.56583
H         39.61285        39.97041        -2.99082
O         42.71644        37.36812         1.76701
H         41.95061        36.84602         2.08672
O         44.66500        26.95990         1.94151
H         45.30882        27.36218         2.56054
O         47.66432        41.04026         2.07505
H         47.68510        41.78628         2.72678
O         44.02779        33.79494        -2.16213
H         43.16864        34.16588        -2.46140
O         50.67689        37.84121        -2.35749
H         51.23455        37.14554        -2.76957
O         41.81274        30.87909        -2.17607
H         41.32492        30.13032        -2.58841
O         42.32967        31.47259         1.40038
H         43.10464        31.74541         1.93598
O         41.98858        44.19610        -1.84526
H         41.60602        45.04573        -2.16643
O         48.43750        43.52474         3.03160
H         49.19066        43.33481         3.62875
O         32.24137        35.59160        -0.60643
H         32.68504        36.06311        -1.35069
O         34.48658        28.65734        -1.67606
H         35.07392        28.14096        -2.26408
O         33.05091        41.55012         1.05912
H         33.00988        42.44270         1.46266
O         51.67343        41.88521         2.30218
H         52.59138        41.87921         2.64382
O         40.38757        28.21670        -2.09349
H         39.52600        27.80852        -2.36977
O         32.26269        40.17180        -2.22186
H         33.02200        40.53255        -2.74261
O         44.46248        26.81428        -1.65499
H         43.82083        26.41686        -2.27801
O         49.41201        39.30766         1.32658
H         48.63535        39.64556         1.84785
O         40.99776        39.77183         1.45128
H         41.70236        39.42102         2.03993
O         51.57440        37.80160         1.29967
H         50.87730        38.41122         1.65348
