         404
 CSIRO Nanostructure Databank - Neutral Graphene Oxide Data Set
C          1.14836         3.44051        -0.07220
C         -0.03829         4.10964         0.17351
C          1.13365         6.25682         0.29895
C         -0.05033         5.50105         0.35820
C          1.13849         7.70307         0.50343
C         -0.04071         8.41168         0.76198
C          1.16592        10.52061         0.94127
C         -0.02157         9.79451         0.97956
C          1.13920        11.99008         1.29942
C         -0.02505        12.76201         0.72475
C          1.20576        14.86832         0.99240
C          0.00279        14.11102         0.67265
C          1.21827        16.27622         1.11905
C          0.03265        17.06924         0.85205
C          1.13734        19.17711         1.52138
C          0.00992        18.41986         0.94467
C          1.19974        20.65472         1.30898
C         -0.01790        21.37448         1.16746
C          1.19283        23.46095         0.80674
C         -0.02216        22.73087         0.94579
C          1.19062        24.84897         0.48002
C         -0.04394        25.59319         0.36907
C          1.14215        27.49940        -0.62983
C         -0.08128        26.84994        -0.13417
C          1.11918        28.99022        -1.01566
C         -0.10424        29.78723        -0.86254
C          1.15871        31.89301        -0.99802
C         -0.06627        31.14298        -0.83279
C          1.13759        33.30657        -1.00572
C         -0.04063        34.10080        -0.84766
C          1.20448        36.23815        -0.85833
C         -0.01288        35.48313        -0.82322
C          1.23811        37.66296        -0.85379
C          3.59038         3.49138        -0.39087
C          2.37215         4.16111        -0.14688
C          3.59140         6.31370        -0.04124
C          2.36238         5.58374         0.03832
C          3.59121         7.73074         0.18863
C          2.37643         8.42295         0.46239
C          3.63864        10.55187         0.71589
C          2.39456         9.84170         0.69847
C          3.64129        11.99982         0.91782
C          2.43708        12.70885         1.02889
C          3.66544        14.84684         1.13292
C          2.43240        14.13477         1.07834
C          3.65773        16.25322         1.35910
C          2.44755        16.95553         1.40856
C          3.70516        19.18999         1.82512
C          2.41906        18.39913         1.76495
C          3.69329        20.66379         1.52689
C          2.41056        21.34988         1.23828
C          3.66916        23.45854         0.83981
C          2.43464        22.75746         0.95846
C          3.66198        24.84475         0.48472
C          2.42064        25.52233         0.24544
C          3.63868        27.53962        -0.46053
C          2.43257        26.86819        -0.25025
C          3.64291        28.90339        -1.06718
C          2.39592        29.72902        -1.06550
C          3.65512        31.83890        -1.41886
C          2.38743        31.11524        -1.14698
C          3.66885        33.34151        -1.34374
C          2.38880        34.07834        -1.19514
C          3.65092        36.22501        -0.86894
C          2.43414        35.53208        -0.89342
C          3.68213        37.64750        -0.93983
C          2.43461        38.34636        -0.93762
C          6.02271         3.51575        -0.72618
C          4.80896         4.19706        -0.48747
C          6.02836         6.35809        -0.45864
C          4.80178         5.63234        -0.33002
C          6.00522         7.77053        -0.23523
C          4.82471         8.44938         0.12861
C          6.09931        10.56178         0.47772
C          4.84920         9.86931         0.43378
C          6.15609        11.94424         1.07568
C          4.87410        12.72124         0.93283
C          6.15130        14.85259         0.97161
C          4.89498        14.11741         1.04462
C          6.18023        16.24596         1.11210
C          4.95761        16.94380         1.55517
C          6.21891        19.17133         1.25440
C          5.00440        18.44320         1.69604
C          6.17403        20.61074         1.09466
C          4.96095        21.33366         1.14545
C          6.15140        23.44656         0.80741
C          4.93498        22.74239         0.93308
C          6.13092        24.95189         0.91225
C          4.87806        25.57615         0.34732
C          6.14434        27.63950        -0.17764
C          4.88299        26.89687        -0.12353
C          6.16404        28.97099        -0.52869
C          4.97746        29.62617        -1.10966
C          6.18366        31.90500        -1.02602
C          4.97187        31.11503        -1.32444
C          6.19888        33.28613        -1.02471
C          4.92379        34.01663        -0.88267
C          6.22047        36.23505        -0.72704
C          4.93058        35.51270        -0.68264
C          6.19504        37.65421        -0.98621
C          4.93098        38.30300        -1.06246
C          8.44951         3.51916        -1.13351
C          7.25557         4.20818        -0.87258
C          8.50477         6.33328        -0.73646
C          7.24214         5.65726        -0.74335
C          8.52577         7.81263        -0.63682
C          7.23694         8.55471        -0.41515
C          8.55179        10.60802         0.17813
C          7.29317         9.93466         0.11102
C          8.57617        12.02700         0.41534
C          7.37595        12.72321         0.65874
C          8.57437        14.87299         0.52526
C          7.36329        14.13619         0.71111
C          8.55565        16.29569         0.58174
C          7.38322        16.99601         0.92963
C          8.62340        19.16962         0.69438
C          7.38730        18.45300         0.98346
C          8.62387        20.61834         0.71591
C          7.40025        21.32063         0.85691
C          8.62799        23.46630         0.69881
C          7.38554        22.75271         0.79328
C          8.63486        24.89357         0.54994
C          7.40912        25.61116         0.46624
C          8.65659        27.65725        -0.03033
C          7.40561        26.96722         0.13008
C          8.69270        29.04467        -0.32349
C          7.40265        29.75744        -0.34004
C          8.67327        31.91461        -0.88422
C          7.41120        31.22372        -0.60630
C          8.67786        33.30887        -0.98643
C          7.42072        34.01620        -0.87474
C          8.68235        36.01831        -0.46055
C          7.40121        35.42420        -0.66445
C          8.65420        38.17239        -0.91421
C          7.35131        38.46247        -1.32597
C         11.00917         3.54158        -1.52228
C          9.68138         4.27452        -1.54212
C         10.96912         6.31947        -0.68927
C          9.69277         5.63323        -0.89006
C         10.96059         7.77901        -0.47704
C          9.79908         8.49181        -0.32422
C         11.00764        10.60177         0.13469
C          9.79035         9.91247        -0.00921
C         11.06282        12.02864         0.28051
C          9.81276        12.75231         0.38523
C         11.06904        14.88768         0.58863
C          9.80118        14.15341         0.42448
C         11.10062        16.31839         0.19408
C          9.76661        17.04426         0.21790
C         11.05068        19.20570        -0.06276
C          9.79057        18.49467         0.37699
C         11.09096        20.64170         0.38553
C          9.85592        21.32632         0.58630
C         11.09700        23.45809         0.58565
C          9.85477        22.75507         0.64794
C         11.10868        24.87671         0.50358
C          9.87310        25.58080         0.40383
C         11.13253        27.68704         0.04259
C          9.89103        26.97853         0.14111
C         11.15304        29.06417        -0.31812
C          9.90185        29.72160        -0.52684
C         11.22453        31.88526        -1.07566
C          9.88518        31.11929        -1.00722
C         11.17103        33.35141        -1.02053
C          9.93076        34.03104        -1.07073
C         11.07825        36.28390        -1.10610
C          9.87857        35.45266        -0.86749
C         11.10821        37.78790        -1.12248
C          9.92933        38.57836        -1.35950
C         13.50250         3.57107        -1.67281
C         12.20883         4.19585        -1.46541
C         13.36417         6.48605        -1.57761
C         12.25166         5.62064        -1.01715
C         13.48136         7.85625        -0.88964
C         12.26312         8.38878        -0.19206
C         13.53463        10.57353        -0.00253
C         12.27769         9.87002         0.15646
C         13.53593        12.01485        -0.09870
C         12.29059        12.70224         0.27041
C         13.65202        14.86485         0.41620
C         12.37873        14.12410         0.57751
C         13.60082        16.32570         0.62022
C         12.35203        17.07455         0.35845
C         13.56288        19.20255         0.18182
C         12.34658        18.46378         0.24515
C         13.57701        20.62600         0.24893
C         12.31280        21.32494         0.42307
C         13.55982        23.46155         0.56601
C         12.32849        22.75009         0.54483
C         13.57253        24.87936         0.59845
C         12.34025        25.58580         0.48446
C         13.59351        27.70283         0.30057
C         12.35661        26.99808         0.29650
C         13.60269        29.07845        -0.03041
C         12.41308        29.76626        -0.38839
C         13.60702        31.94853        -0.45968
C         12.44475        31.18607        -0.65014
C         13.57242        33.37911        -0.46486
C         12.38381        34.05903        -0.75894
C         13.62357        36.28094        -0.76630
C         12.39646        35.51877        -1.01044
C         13.60547        37.69395        -0.96828
C         12.36434        38.38607        -1.19912
C         15.96814         3.62305        -1.90621
C         14.69285         4.27726        -1.75180
C         16.02291         6.45918        -1.37997
C         14.71233         5.76424        -1.71483
C         16.03501         7.74351        -0.67803
C         14.79969         8.49096        -0.52093
C         16.10165        10.58641         0.25939
C         14.77815         9.82676         0.16447
C         16.12503        12.03916         0.07761
C         14.86122        12.76825        -0.07939
C         16.12707        14.90980         0.12245
C         14.85075        14.21935         0.21154
C         16.14613        16.31581         0.11670
C         14.91345        17.06396         0.40594
C         16.12110        19.20309        -0.29760
C         14.82194        18.46931        -0.06114
C         16.06791        20.69237        -0.14217
C         14.79045        21.34254         0.25380
C         16.00884        23.45905         0.76663
C         14.80931        22.75648         0.51261
C         16.02537        24.87525         0.95106
C         14.80502        25.59633         0.71823
C         16.05840        27.71345         0.79039
C         14.82471        27.00823         0.60493
C         16.12521        29.10668         0.42010
C         14.91504        29.73783        -0.17964
C         16.16340        32.02128        -0.27426
C         14.90095        31.23903        -0.44502
C         16.09836        33.47566        -0.04897
C         14.75050        34.16373         0.08124
C         15.98881        36.33546        -0.24009
C         14.79635        35.61186        -0.37372
C         16.02032        37.73849        -0.52291
C         14.81873        38.39943        -0.86281
C         18.44848         3.57859        -1.97502
C         17.18492         4.26468        -1.73099
C         18.47368         6.27575        -1.08080
C         17.26192         5.65297        -1.32675
C         18.54670         7.68377        -0.76857
C         17.31204         8.32613        -0.28688
C         18.60097        10.56681        -0.24484
C         17.37622         9.82365         0.08285
C         18.58872        11.99356        -0.17339
C         17.34391        12.72795        -0.01112
C         18.58717        14.87718        -0.08063
C         17.34564        14.16913        -0.03173
C         18.59943        16.31055        -0.00959
C         17.37038        17.04318        -0.00725
C         18.60542        19.16236         0.13412
C         17.38634        18.47033        -0.04068
C         18.64128        20.64584         0.15112
C         17.34655        21.41679         0.11988
C         18.50035        23.41862         1.21319
C         17.23448        22.62828         1.02659
C         18.37888        24.75637         1.68270
C         17.19620        25.58575         1.38093
C         18.31811        27.88310         1.74327
C         17.20041        27.02750         1.33723
C         18.40186        29.25004         1.31093
C         17.30124        29.84296         0.59654
C         18.52919        32.09622         0.68223
C         17.41146        31.27115         0.19054
C         18.51842        33.50483         0.47981
C         17.25155        34.17551         0.20613
C         18.48118        36.44509         0.33179
C         17.19828        35.65896         0.27241
C         18.48820        37.77600        -0.32670
C         17.27040        38.42728        -0.57171
C         19.64131         4.15523        -1.72130
C         20.92845         6.33335        -1.45241
C         19.75521         5.48308        -1.02098
C         20.92158         7.67615        -1.29732
C         19.74169         8.40153        -0.82972
C         20.97186        10.59838        -0.73389
C         19.77704         9.84402        -0.58364
C         20.98996        11.97162        -0.57293
C         19.80844        12.71429        -0.31063
C         21.02869        14.89830        -0.11938
C         19.81822        14.15913        -0.17588
C         21.03913        16.26887         0.05678
C         19.83079        17.01699         0.11513
C         20.96481        19.12964         0.85094
C         19.81365        18.44247         0.31349
C         20.95312        20.45107         1.17263
C         19.86140        21.33600         0.73275
C         20.83486        23.33488         1.90322
C         19.72839        22.72171         1.29119
C         20.66473        24.53742         2.58794
C         19.44113        25.20244         2.49391
C         20.41943        28.24866         3.00834
C         19.31782        27.47261         2.66175
C         20.55608        29.51945         2.45968
C         19.55113        30.04498         1.63905
C         20.81682        32.21060         1.46483
C         19.64892        31.45436         1.24723
C         20.84395        33.57126         1.17691
C         19.70222        34.24386         0.72459
C         20.88134        36.18483        -0.37867
C         19.81578        35.75647         0.59718
C         20.84237        37.42658        -0.94583
C         19.69736        38.26565        -0.85011
O         11.72342        14.55820         1.84715
O         17.64201        36.31235         1.53063
O          7.28494        30.70321         0.81573
O         10.60423        31.30570        -2.27072
O         14.18074        12.48995        -1.37746
O         15.47384         6.40690        -2.78509
O          8.72442        37.25759         0.16377
O         10.38894        16.57115        -1.06542
O          7.81690         8.43221        -1.77544
O         19.64370        21.25004        -0.72257
O          1.51169        18.71415         2.86232
O         15.39294        10.09055         1.45735
O         17.17390        31.58424        -1.22658
O          4.37539        31.43081        -2.62864
O          3.04202        33.89632        -2.53867
O          5.18115        17.57403         2.87113
O         11.77854        35.81514        -2.31217
O          4.45455        28.92812        -2.28747
O         15.04772        30.27796        -1.53719
O         12.41480         8.78928         1.18972
O         14.38903        16.84548         1.75204
O         16.75211        21.49077        -1.19237
O         11.90148         5.73432         0.37995
O          3.74524        20.14547         2.92066
O          1.04511        27.92097        -2.03193
O          4.81656        34.56510         0.47200
O         19.20050        26.27067         3.36495
O         17.50434         8.79330         1.10569
O         15.35229        18.66038        -1.42000
O         14.07998         8.78789        -1.83881
O          6.05052        25.22838         2.36476
H          6.80730        24.77380         2.79261
O          9.48704         4.55885        -2.99641
H          8.64568         5.05731        -3.08698
O         12.90903         6.75296        -2.92212
H         13.64985         7.21986        -3.37475
O         14.49226        34.21860         1.53218
H         15.16090        34.81862         1.92893
O         10.97428        19.25237        -1.52922
H         10.83812        18.32020        -1.82817
O         20.26694        36.24730         1.89693
H         19.46302        36.30351         2.46179
O         19.99512         5.16459         0.39564
H         19.99324         6.01351         0.88779
O          6.31267        11.72180         2.53072
H          6.36590        12.60298         2.95906
O         17.02606        22.00862         2.35706
H         16.92726        22.73219         3.01262
O          0.95927        12.02175         2.76047
H          0.97887        12.96260         3.03785
H          1.15708         2.35033        -0.21283
H         -0.98318         3.55139         0.22887
H         -1.01303         5.99111         0.55502
H         -1.00590         7.89072         0.81111
H         -0.96766        10.30417         1.20822
H         -0.94901        12.22828         0.45818
H         -0.89610        14.65079         0.34256
H         -0.85991        16.55939         0.46461
H         -0.88030        18.96461         0.59990
H         -0.97584        20.84718         1.26747
H         -0.98791        23.24421         0.85730
H         -0.98529        25.12690         0.68849
H         -1.04630        27.36018        -0.25463
H         -1.07240        29.27153        -0.80727
H         -1.01259        31.68944        -0.72298
H         -1.01935        33.60798        -0.76487
H         -0.96280        36.03220        -0.74504
H          0.28921        38.21831        -0.82817
H          3.58890         2.39804        -0.51404
H          2.43971        39.44494        -0.98436
H          6.00940         2.41999        -0.82512
H          4.92496        39.39238        -1.22048
H          8.41969         2.42610        -1.25830
H          7.17325        39.33663        -1.97033
H         10.99079         2.47625        -1.80258
H         10.04718        39.52367        -1.91093
H         13.53472         2.47434        -1.77035
H         12.41565        39.47847        -1.32353
H         15.96797         2.54832        -2.14635
H         14.83411        39.48438        -1.04163
H         18.40462         2.57376        -2.42255
H         17.28715        39.44983        -0.97852
H         20.57392         3.61154        -1.93595
H         21.84532         5.82447        -1.78643
H         21.82792         8.24442        -1.55034
H         21.91598        10.08940        -0.96892
H         21.94829        12.49550        -0.68888
H         21.99140        14.37309        -0.18150
H         22.00530        16.78766         0.12020
H         21.83642        18.52743         1.14424
H         21.79744        20.87096         1.73689
H         21.80813        22.82879         1.93868
H         21.46797        24.95314         3.20920
H         21.14989        27.86080         3.72894
H         21.42613        30.12397         2.74158
H         21.73209        31.73922         1.84454
H         21.76280        34.14514         1.35990
H         21.76374        35.54200        -0.50959
H         21.69263        37.77612        -1.54982
H         19.70521        39.24516        -1.34926
