         762
 CSIRO Nanostructure Databank - Neutral Graphene Oxide Data Set
C         23.14028        24.73771        -2.65349
C         21.90484        25.46894        -2.55992
C         23.13107        27.59425        -2.94150
C         21.87351        26.82482        -2.60907
C         23.08511        29.06432        -2.55351
C         21.97903        29.89594        -2.84431
C         23.08887        31.93042        -1.97952
C         21.94954        31.24496        -2.48719
C         23.16002        33.33019        -1.79828
C         22.07706        34.20178        -2.23250
C         22.92675        36.01474        -0.78509
C         21.99162        35.49568        -1.85345
C         22.94508        37.53142        -0.62816
C         21.80204        38.26992        -0.81928
C         22.93813        40.44522        -0.61704
C         21.79161        39.69233        -0.82329
C         22.98395        41.86972        -0.86015
C         21.87077        42.62790        -1.24257
C         22.90347        44.78355        -0.65077
C         21.83396        44.03251        -1.15877
C         22.77570        46.15311        -0.24042
C         21.77158        47.01273        -0.68643
C         22.99147        48.95294         0.20355
C         21.85524        48.38282        -0.39650
C         25.72188        23.21170        -2.43754
C         25.66616        24.67834        -2.54829
C         24.35823        25.39355        -2.59578
C         25.42252        27.47068        -1.81537
C         24.36829        26.82851        -2.47954
C         25.16504        28.78675        -1.34903
C         24.17682        29.63496        -1.87626
C         25.61572        31.83657        -1.51724
C         24.32327        31.11891        -1.85563
C         25.53397        33.26261        -1.13860
C         24.35899        33.96843        -1.28427
C         25.38246        36.01809        -0.06872
C         24.35251        35.48988        -1.10572
C         25.46537        37.53376        -0.12522
C         24.15352        38.21055        -0.11899
C         25.44505        40.46117        -0.04069
C         24.14130        39.75392        -0.09893
C         25.44105        41.83886        -0.15760
C         24.25758        42.56697        -0.66351
C         25.27308        44.73819         0.27762
C         24.22039        44.11651        -0.56377
C         24.88120        45.79765         1.03191
C         23.69956        46.68895         0.83316
C         25.31079        48.87415         1.03936
C         24.06286        48.19592         0.70140
C         25.35846        50.31944         1.07406
C         28.08549        23.22323        -1.69830
C         26.84439        22.56119        -2.03537
C         28.11835        24.65750        -1.66539
C         26.89654        25.42235        -2.04526
C         28.05112        27.56563        -1.13681
C         26.70588        26.79195        -1.47424
C         28.12593        29.02591        -1.19198
C         27.03760        29.85549        -0.84385
C         28.12858        31.93039        -1.68100
C         26.91479        31.17515        -1.21923
C         28.11227        33.31586        -1.09992
C         26.80171        33.91391        -0.71904
C         27.95248        36.16798        -0.47512
C         26.73736        35.33115        -0.25016
C         27.94557        37.58932        -0.03640
C         26.66164        38.25358         0.04393
C         27.90710        40.36921         0.29813
C         26.66802        39.70029         0.15333
C         27.95546        41.84827         0.25121
C         26.69490        42.61116        -0.02693
C         27.83554        44.71205         0.95567
C         26.63117        44.09190         0.30367
C         27.84669        46.13098         1.40685
C         26.72791        46.90237         1.59895
C         27.81657        49.01792         0.69693
C         26.58745        48.26272         1.23879
C         27.82275        50.46602         1.14718
C         26.52322        51.04584         1.23917
C         30.39048        20.37400        -0.77156
C         29.22420        21.07019        -1.06827
C         30.54506        23.12116        -1.31290
C         29.23377        22.45903        -1.34014
C         30.56850        24.65121        -1.33113
C         29.28637        25.36990        -1.36917
C         30.54605        27.48350        -1.24203
C         29.33389        26.81610        -1.27999
C         30.65051        28.93980        -1.43466
C         29.35255        29.72493        -1.58104
C         30.57128        31.81576        -1.00917
C         29.40021        31.18257        -1.36730
C         30.57294        33.26121        -0.77719
C         29.29216        33.95860        -0.82261
C         30.45471        36.12706        -0.15714
C         29.24493        35.43588        -0.67711
C         30.48069        37.63560        -0.33363
C         29.15261        38.28806         0.03633
C         30.41385        40.47438         0.26403
C         29.14847        39.69454         0.24650
C         30.35162        41.87378         0.76147
C         29.15482        42.52213         0.82259
C         30.26902        44.61069         1.78201
C         28.95097        43.84423         1.53977
C         30.27939        46.11933         1.82111
C         29.12277        46.81827         1.19035
C         30.38109        49.01865         1.30269
C         29.14378        48.28118         0.93315
C         30.33883        50.50054         1.17375
C         29.02316        51.19495         1.24066
C         30.23035        53.33711         1.60128
C         29.06083        52.60620         1.43092
C         32.94385        18.79830        -0.52519
C         32.87942        20.24361        -0.30781
C         31.65088        21.01020        -0.63513
C         32.96910        23.11363        -0.73022
C         31.73832        22.40241        -0.82383
C         32.97974        24.58710        -0.65381
C         31.75456        25.34694        -0.83797
C         33.03821        27.51136        -0.75871
C         31.86641        26.75594        -1.33862
C         32.96760        28.87049        -0.50471
C         31.81827        29.66782        -0.89884
C         32.88277        31.74585        -0.02652
C         31.76958        31.04221        -0.71849
C         32.97277        33.22191        -0.11117
C         31.74058        33.91931        -0.39388
C         33.00025        36.06446         0.09050
C         31.72276        35.35379        -0.05645
C         32.99954        37.57202         0.00677
C         31.67226        38.22165         0.46978
C         32.93293        40.33008         1.04123
C         31.76339        39.73686         0.36132
C         32.95211        41.81237         1.17093
C         31.64343        42.57393         1.00169
C         32.84945        44.77575         1.54012
C         31.60018        43.95499         1.58479
C         32.83712        46.15231         1.72132
C         31.55830        46.88048         1.84183
C         32.77733        49.04110         2.00772
C         31.53727        48.34390         1.56968
C         32.75420        50.52749         2.08906
C         31.58207        51.27171         1.51628
C         32.72964        53.46704         1.74897
C         31.51227        52.74382         1.70055
C         32.80463        54.85590         1.50286
C         35.39997        18.82672        -0.61398
C         34.13905        18.14128        -0.53704
C         35.45326        20.21395        -0.69478
C         34.24151        21.00255        -0.40582
C         35.41563        23.10913        -1.06080
C         34.20905        22.45234        -0.67091
C         35.51285        24.58864        -1.22947
C         34.30221        25.33321        -0.76429
C         35.50349        27.48455        -0.56882
C         34.30548        26.82335        -0.75818
C         35.47796        28.81948         0.03287
C         34.12379        29.50459         0.14352
C         35.38322        31.67569         0.70962
C         34.08416        30.97067         0.41698
C         35.36494        33.18916         0.68069
C         34.12764        33.89805         0.26651
C         35.42135        36.04289         0.56684
C         34.17129        35.35288         0.27142
C         35.37478        37.43762         0.85729
C         34.14737        38.15093         0.77573
C         35.21324        39.89288         2.01379
C         34.03545        39.45422         1.31522
C         35.20205        42.05612         2.31546
C         34.06698        42.63249         1.73078
C         35.30902        44.74055         1.87148
C         34.08848        44.04617         1.61106
C         35.28711        46.17196         1.94302
C         34.06549        46.90160         1.83834
C         35.30957        49.02916         2.08392
C         34.07725        48.31192         1.98426
C         35.31060        50.49495         2.00860
C         34.05605        51.26171         2.19488
C         35.27928        53.43073         1.59820
C         34.02147        52.76931         2.00245
C         35.25899        54.82221         1.24672
C         34.01520        55.50240         1.27735
C         37.92615        16.02699        -0.35928
C         36.72828        16.68687        -0.35605
C         37.99044        18.83634        -1.03794
C         36.63205        18.04732        -0.85877
C         37.95704        20.31359        -1.04980
C         36.65640        20.91497        -1.08719
C         38.28679        23.36027        -1.34304
C         36.47907        22.27875        -1.44380
C         38.13118        24.70554        -0.96771
C         36.84839        25.40204        -1.23212
C         37.99708        27.51259        -0.22347
C         36.83929        26.93342        -1.02610
C         37.95879        28.90607         0.09733
C         36.72087        29.62034         0.14785
C         37.88477        31.72692         0.68514
C         36.68194        30.98506         0.48587
C         37.85638        33.17333         0.83788
C         36.66121        33.90502         0.65980
C         37.86515        36.03998         1.01247
C         36.64692        35.32976         0.72100
C         37.82345        37.45627         1.17161
C         36.59148        38.13568         1.19332
C         37.70604        40.36644         1.87507
C         36.50061        39.46787         1.72963
C         37.68592        41.70915         2.65690
C         36.48445        42.60203         2.28593
C         37.70679        44.69455         2.51269
C         36.52834        44.00263         2.08192
C         37.53500        46.04539         2.80443
C         36.47037        46.87600         2.30470
C         37.82810        49.06658         2.29507
C         36.52837        48.30560         2.26547
C         37.78954        50.53267         1.89392
C         36.47110        51.21907         1.77943
C         37.64357        53.27327         1.03598
C         36.45136        52.65260         1.55073
C         37.72143        54.73143         0.83708
C         36.47809        55.50687         0.85378
C         37.67210        57.36883        -0.25157
C         36.54263        56.82847         0.41965
C         40.48129        14.49025        -0.56466
C         40.40322        15.92602        -0.27735
C         39.16676        16.70361        -0.55156
C         40.42318        18.85794        -0.50395
C         39.21801        18.10399        -0.69190
C         40.38828        20.28995        -0.56184
C         39.18912        21.03305        -0.88023
C         40.42725        23.16621        -0.33922
C         39.28223        22.48574        -0.84200
C         40.37743        24.56853        -0.05816
C         39.21002        25.33412        -0.27326
C         40.32845        27.45393         0.50559
C         39.17086        26.77127         0.02970
C         40.36885        28.87336         0.61193
C         39.15328        29.60496         0.45810
C         40.34167        31.67676         1.06807
C         39.13062        31.01294         0.70725
C         40.25549        33.07875         1.52555
C         39.05686        33.88668         1.18369
C         40.27345        36.02696         1.73173
C         39.05873        35.28510         1.28323
C         40.34882        37.50105         1.44942
C         39.07402        38.25127         1.25813
C         40.30887        40.37927         2.04940
C         39.05123        39.72061         1.60263
C         40.23709        41.79728         2.33771
C         39.00169        42.46785         2.49013
C         40.31176        44.71288         2.60049
C         38.96076        43.92335         2.76474
C         40.25219        46.14557         2.21986
C         39.35026        47.07710         2.69841
C         40.23025        48.97415         1.46828
C         39.15868        48.38337         2.10362
C         40.22553        50.34809         0.90101
C         38.97375        51.16509         1.18417
C         39.57394        53.06108        -0.39976
C         38.67569        52.48659         0.56160
C         39.88724        54.38043        -0.54014
C         38.96805        55.33257         0.12073
C         39.88229        57.07832        -1.44373
C         38.81993        56.63888        -0.53105
C         39.79074        58.35968        -2.02743
C         42.92267        14.55095        -0.42007
C         41.67793        13.84209        -0.52141
C         42.96883        15.92091        -0.41014
C         41.72037        16.68519        -0.24787
C         42.88656        18.85308        -0.37660
C         41.69421        18.15995        -0.41266
C         42.83009        20.25372         0.15000
C         41.59789        21.01229        -0.28275
C         42.90090        23.11662        -0.05030
C         41.62208        22.39466        -0.17364
C         42.87146        24.56439         0.33983
C         41.54601        25.20208         0.59893
C         42.81236        27.43148         0.98967
C         41.53499        26.70167         0.87741
C         42.82983        28.82820         1.00336
C         41.58991        29.56930         0.91505
C         42.82936        31.69139         1.40718
C         41.57511        30.97749         1.14195
C         42.82107        33.06149         1.65823
C         41.55742        33.78308         1.89743
C         42.84786        36.01462         1.78545
C         41.56408        35.28855         1.99061
C         42.82488        37.50326         1.64482
C         41.56492        38.24589         1.85661
C         42.83791        40.33539         2.21235
C         41.55411        39.64264         2.01993
C         42.78192        41.81378         2.35867
C         41.48544        42.54200         2.31859
C         42.69741        44.61278         1.71645
C         41.53805        43.93364         2.28880
C         42.46305        45.83761         1.10718
C         41.47476        46.75875         1.70675
C         42.73082        48.87535         0.91614
C         41.54091        48.30223         1.53085
C         42.59900        49.85752        -0.19456
C         41.35087        50.70038        -0.03558
C         42.39724        52.44789        -1.55728
C         41.28575        51.71308        -0.92672
C         42.18390        53.93756        -1.88412
C         41.20656        54.89160        -1.10550
C         42.09235        56.83701        -2.46286
C         41.03410        56.27664        -1.72511
C         41.96451        58.11677        -3.02825
C         40.80954        58.86752        -2.82607
C         45.54435        16.06029        -0.36669
C         44.22633        16.67154        -0.66360
C         45.46079        18.92678        -0.44220
C         44.18172        18.19882        -0.66045
C         45.36789        20.24035         0.01046
C         44.12801        20.99298         0.01397
C         45.38967        23.12521         0.23900
C         44.15944        22.36551         0.09465
C         45.38060        24.46285         0.60161
C         44.11240        25.16374         0.91213
C         45.32675        27.41513         1.08776
C         44.06403        26.67597         1.18209
C         45.32536        28.80408         1.14437
C         44.08060        29.54886         1.16654
C         45.34820        31.64034         1.46147
C         44.08744        30.94666         1.33984
C         45.37215        33.09836         1.72638
C         44.07106        33.84240         1.85621
C         45.29085        36.06207         1.40036
C         44.02418        35.33281         1.71412
C         45.41038        37.51542         1.73774
C         44.12966        38.27060         1.73815
C         45.37053        40.40117         2.36409
C         44.06267        39.69410         2.13493
C         45.34977        41.85680         2.05286
C         44.04030        42.56614         2.04768
C         45.30544        44.76583         1.60603
C         44.00743        43.92682         1.38697
C         45.37668        46.14752         1.49316
C         44.34629        47.09656         2.01193
C         45.24564        48.82755         0.45781
C         43.99896        48.18313         1.03227
C         45.08865        50.21856        -0.01195
C         43.85882        50.69123        -0.42721
C         44.86432        52.75630        -1.27801
C         43.75804        51.95297        -1.16746
C         44.79450        54.03888        -1.99944
C         43.44862        54.64518        -2.33593
C         44.61228        56.88871        -2.30985
C         43.39280        56.11648        -2.77367
C         46.69105        16.75409        -0.46463
C         48.11485        18.81925        -0.86212
C         46.72202        18.18377        -0.97644
C         48.38063        19.97162        -0.12177
C         46.51698        21.01259         0.41103
C         47.92610        23.08016         0.28304
C         46.63521        22.38323         0.32143
C         47.92415        24.45060         0.41283
C         46.66727        25.14319         0.85654
C         47.81651        27.44702         0.74035
C         46.59710        26.65069         1.03558
C         47.79693        28.86635         1.14981
C         46.59183        29.53092         1.22539
C         47.83725        31.68386         1.48932
C         46.56971        30.97234         1.38273
C         47.83254        33.13514         1.46679
C         46.62959        33.82495         1.45038
C         47.84237        36.03399         1.15165
C         46.55483        35.28086         1.20518
C         47.86926        37.49653         1.41792
C         46.62578        38.17118         1.77870
C         47.99687        40.30083         1.88729
C         46.70286        39.61094         2.18877
C         48.24220        41.65526         2.18852
C         46.40506        42.70724         2.27709
C         47.81855        44.63782         1.51474
C         46.57290        44.05275         1.73052
C         47.92275        46.14855         1.31518
C         46.58940        46.83915         1.16565
C         47.71456        48.81291         0.20009
C         46.56149        48.18253         0.74507
C         47.65045        50.26010        -0.12190
C         46.32165        51.02478        -0.08951
C         47.33368        52.91665        -1.44343
C         46.17781        52.46768        -0.57323
C         47.26314        54.20714        -1.98691
C         46.00428        54.89133        -2.01924
C         45.83708        56.29882        -2.12938
C         50.31490        19.16386        -1.85400
C         49.13008        18.43222        -1.76172
C         50.43592        20.44657        -1.27081
C         49.35675        20.91714        -0.47038
C         50.43033        23.21990        -0.44739
C         49.15218        22.38109        -0.27980
C         50.45085        24.57626         0.15296
C         49.12241        25.28195        -0.05724
C         50.30818        27.29903         1.13083
C         49.10088        26.74434         0.41896
C         50.28240        28.78622         1.42101
C         49.09024        29.60092         0.94809
C         50.32084        31.70058         1.53851
C         49.05389        31.00992         1.46719
C         50.31227        33.14535         1.56697
C         49.11418        33.81568         1.44555
C         50.33393        36.06264         1.70967
C         49.12353        35.27812         1.23353
C         50.36636        37.44415         0.97261
C         49.06545        38.17264         1.25641
C         50.34496        40.31467         1.17885
C         49.12222        39.60817         1.38789
C         50.37150        41.73206         1.15275
C         49.23387        42.44192         1.58794
C         50.31872        44.60101         0.86626
C         49.20329        43.96486         1.72548
C         50.20815        45.86930         0.33777
C         48.86251        46.55152         0.16158
C         50.00248        48.71818        -0.63464
C         48.90341        48.07861        -0.03876
C         49.92891        50.09052        -1.10550
C         48.74567        50.82314        -0.92886
C         49.69737        52.70427        -2.42587
C         48.49341        52.05984        -1.68558
C         49.63051        54.15971        -2.62926
C         48.46953        54.84248        -2.48200
C         52.92395        20.64417        -1.64161
C         51.67573        21.22095        -1.27842
C         52.90015        23.13922        -0.34144
C         51.68841        22.49966        -0.69200
C         52.84168        24.32279         0.47132
C         51.61379        25.11462         0.65520
C         52.80900        27.35343         1.59478
C         51.58704        26.50559         1.30551
C         52.84377        28.78665         1.47200
C         51.56949        29.54128         1.53699
C         52.79774        31.72970         1.24840
C         51.52779        31.00973         1.43261
C         52.86969        33.15179         1.57676
C         51.59089        33.86993         1.96146
C         52.81944        35.98975         1.62667
C         51.64355        35.31838         1.53986
C         52.81525        37.47279         1.69448
C         51.59564        38.22402         1.35462
C         52.83765        40.35583         1.13739
C         51.60621        39.59756         1.21373
C         52.83455        41.70637         0.79438
C         51.59119        42.45348         0.84808
C         52.80471        44.51784         0.27892
C         51.55070        43.83179         0.68268
C         52.70256        45.93714        -0.21217
C         51.32658        46.49457        -0.40810
C         52.48321        48.63582        -1.25310
C         51.21481        47.91384        -0.90978
C         52.38383        50.05258        -1.76709
C         51.05857        50.71498        -1.78508
C         52.14846        52.58152        -2.94872
C         50.99073        51.99123        -2.33365
C         54.11507        21.27405        -1.34436
C         55.38494        23.10534        -0.19079
C         54.15111        22.50581        -0.63085
C         55.31928        24.21224         0.67443
C         54.04502        24.63743         1.09702
C         55.30833        27.29656         1.65908
C         54.05469        26.73097         1.85597
C         55.34820        28.78729         1.87358
C         54.05679        29.47524         1.49132
C         55.36533        31.67029         1.56115
C         54.11774        30.93348         1.27617
C         55.35682        33.07859         1.60361
C         54.08808        33.79510         1.63821
C         55.40990        36.01554         1.82023
C         54.08874        35.25942         1.89978
C         55.38200        37.45420         1.47148
C         54.12830        38.21043         1.63674
C         55.35222        40.27792         0.63699
C         54.12717        39.66775         1.29486
C         55.18370        41.56586        -0.05527
C         54.02687        42.33147         0.24624
C         54.94437        44.17730        -1.04436
C         53.96451        43.69066        -0.15809
C         54.93072        45.59871        -1.47355
C         53.82130        46.50795        -1.03829
C         54.58495        48.34368        -2.54432
C         53.62372        47.82084        -1.70769
C         54.50222        49.69293        -3.06014
C         53.44404        50.53153        -2.68386
C         53.29443        51.86712        -3.17489
C         57.82288        23.08007        -0.03054
C         56.68088        22.55850        -0.53498
C         57.83914        24.28830         0.82409
C         56.53068        24.94619         1.17880
C         57.77493        27.26308         0.99578
C         56.49348        26.48735         1.24322
C         57.82735        28.77146         1.15167
C         56.58560        29.52638         1.44809
C         57.86858        31.62386         1.81521
C         56.59144        30.90236         1.57867
C         57.88789        33.12106         1.78953
C         56.59553        33.83473         1.62531
C         57.85612        35.96155         1.32890
C         56.63168        35.22415         1.53533
C         57.76536        37.34223         1.26055
C         56.54618        38.08324         1.08777
C         57.55698        39.92748        -0.62966
C         56.49047        39.36383         0.28551
C         57.32904        41.24258        -1.32042
C         56.15903        42.03819        -0.97428
C         56.77301        43.73489        -2.70525
C         55.96843        43.33020        -1.53255
C         56.85398        45.15949        -3.10149
C         55.71199        46.00851        -2.68132
C         56.78081        48.01701        -3.85226
C         55.60511        47.42578        -3.13531
C         56.54800        49.36069        -4.42375
C         55.50087        50.12236        -4.02786
C         60.35503        24.32994         1.18446
C         59.13710        25.04442         0.80085
C         60.37416        27.19883         1.42408
C         59.11627        26.55427         0.90845
C         60.41333        28.70937         1.54528
C         59.14701        29.46736         1.26687
C         60.41355        31.64180         1.33732
C         59.17784        30.90283         1.71920
C         60.37513        33.00666         1.07813
C         59.20491        33.82430         1.49028
C         60.28228        35.86570         0.24855
C         59.18156        35.29800         1.16596
C         60.07038        37.11688        -0.54789
C         59.33545        38.14341        -0.02181
C         59.72665        39.64586        -1.99526
C         58.95962        39.37700        -0.73726
C         59.28685        40.79864        -2.82753
C         58.15619        41.59086        -2.38901
C         58.89421        43.35056        -4.10118
C         57.85928        42.80186        -3.19359
C         58.75445        44.70841        -4.61511
C         57.77598        45.61043        -4.01132
C         58.71285        47.45270        -5.48194
C         57.85844        47.06684        -4.34613
C         61.55889        25.01832         1.30825
C         61.60786        26.40699         1.34357
C         61.65057        29.49860         1.38162
C         61.61400        30.84347         1.18408
C         61.39364        33.63457         0.25940
C         61.30706        34.90252        -0.21200
C         60.61047        37.32149        -1.88385
C         60.50714        38.51205        -2.53515
C         60.10489        41.24635        -3.84659
C         59.94982        42.53077        -4.43766
C         59.54128        45.17017        -5.65479
C         59.48531        46.52740        -6.10857
O         30.79971        35.60852         1.15900
O         48.57671        35.64333        -0.08575
O         41.01842        16.31547         1.00241
O         39.94019        37.91377         0.10050
O         30.83213        23.85549        -2.56502
O         53.46521        37.96960         2.91736
O         44.81114        33.43466         3.06931
O         47.43338        42.29216         3.12376
O         38.85753        55.32986         1.56856
O         40.15794        51.30519         2.04405
O         44.49413        47.86691        -0.36312
O         56.53195        38.97393        -1.13979
O         57.28088        24.20705         2.18823
O         45.72033        35.66974         0.03900
O         31.27388        50.93994         0.11132
O         58.55855        29.31208        -0.04729
O         52.83122        49.74792        -0.38188
O         38.33725        40.52312         0.57311
O         46.79574        25.75946         2.19322
O         50.55756        26.53880         2.35551
O         37.98410        50.12966         3.28666
O         40.71223        33.18818         2.92182
O         48.41028        27.49961        -0.62629
O         41.31345        25.67866         1.94127
O         31.30269        40.29936        -0.89782
O         33.03197        31.28454         1.37548
O         55.13231        40.39958         2.07329
O         23.89578        38.98222         1.11464
O         27.17595        26.96399        -0.12276
O         41.90535        47.66741         2.78230
O         25.62029        46.22753         2.13480
O         44.12244        17.41280        -1.92758
O         41.90564        52.92307        -2.87179
O         56.52900        42.80913        -3.83117
O         60.11818        40.27300        -0.69506
O         33.82963        24.93970         0.55469
O         58.73584        33.63214         2.86184
O         25.90372        29.25765        -0.26994
O         27.64337        42.32942        -1.11287
O         54.78682        35.66257         3.10481
O         37.42920        22.83033        -2.31044
O         33.60219        20.68316         0.87548
O         35.02242        40.85422         2.98929
O         32.48843        49.74751         3.29163
O         34.08994        52.16424         3.34707
O         47.18516        51.01096         1.09548
O         30.97090        44.01117         2.91665
O         47.55999        20.28475         0.96661
O         40.04060        52.15668        -1.33996
O         56.89733        26.94229        -0.12195
O         36.12911        25.06437        -2.45858
O         25.26033        31.57110        -2.93121
O         29.40993        47.31224        -0.16724
O         35.28237        32.42617         1.94855
O         43.02576        24.20782        -1.06246
O         59.32370        25.91757        -0.37803
O         60.31746        36.02660         1.70346
O         58.57340        31.11217         3.01640
O         53.08688        45.67961         1.15734
O         46.13194        39.91201         3.50364
O         55.11575        46.50631        -0.33634
O         30.12296        29.31059        -2.75616
O         44.00336        25.66055         2.26324
O         53.48792        31.34997         0.00690
O         43.48166        38.01047         0.42231
O         44.16943        53.87456        -3.33684
O         24.63564        43.46414        -1.77568
O         39.74915        44.38240         3.89806
O         44.15590        47.13602         3.21326
O         54.90001        46.35378        -3.87229
O         49.49969        23.01863        -1.55009
O         58.05027        47.90221        -3.13148
O         34.68258        28.79009         1.28043
O         30.76109        46.63638         3.08573
O         26.62953        25.30466        -3.47703
O         48.71909        51.91770        -3.14684
O         50.99860        46.76374        -1.82628
O         60.27190        27.87590         2.73984
O         37.25066        18.25735        -2.15816
O         43.58485        42.44931         3.43574
O         50.21552        36.22246         3.09610
O         28.55802        36.04564        -1.81331
O         27.67518        44.76183        -0.49744
O         32.55184        42.46821        -0.11830
O         50.76006        29.10915         2.73309
O         54.00365        25.40131         2.25535
O         26.89749        34.27439         0.74880
O         38.42317        46.68915         3.66579
O         40.73864        35.77141         3.09822
O         58.92504        38.12154         1.31169
O         24.76952        36.06082        -2.36613
H         24.22049        35.67289        -3.08010
O         49.57167        44.25998         3.11085
H         48.96819        43.73589         3.68622
O         32.16964        26.63997        -2.77615
H         31.49962        26.04532        -3.18100
O         28.43784        43.47856         2.85015
H         29.21725        43.34184         3.43907
O         31.48771        38.00398         1.87724
H         31.32979        37.03588         2.02500
O         48.31966        46.01483        -1.07453
H         48.99406        46.18332        -1.77459
O         42.02352        55.11225         0.09899
H         41.47535        55.58281         0.76452
O         33.20027        37.93732        -1.38989
H         34.10020        37.65170        -1.65245
O         46.15865        53.32409         0.60555
H         46.70608        52.87240         1.28999
O         49.00431        25.33310        -1.50488
H         48.48531        26.13693        -1.74021
O         30.66864        37.83840        -1.74201
H         30.88743        38.79163        -1.88612
O         44.02653        43.68289        -0.07256
H         44.91656        43.35122        -0.32097
O         42.95104        46.10850        -0.11222
H         43.47921        45.32592        -0.42731
O         37.57943        41.34654         4.05260
H         37.69892        42.15277         4.59754
O         24.91851        35.71637         1.26924
H         25.47692        34.96980         1.60351
O         55.38920        28.91929         3.36384
H         54.56732        28.52323         3.72847
O         37.03442        27.50784        -2.35895
H         36.56779        26.91426        -2.99296
O         51.52469        33.92890         3.41425
H         51.01216        34.76869         3.63098
O         28.04353        32.06834        -3.13251
H         28.76910        32.65771        -3.42715
O         49.32540        29.79199        -0.48950
H         48.49740        30.12215        -0.89729
O         22.92471        46.62547         2.07812
H         23.56719        46.75182         2.81119
O         50.54763        37.23058        -0.44418
H         49.76433        36.71455        -0.76913
O         42.34999        49.08208        -1.42337
H         43.08801        48.42562        -1.48496
O         42.67684        20.10002         1.61653
H         41.90185        19.51869         1.77700
O         23.20068        27.61308        -4.41323
H         23.30490        26.68400        -4.71138
O         46.56121        18.14502        -2.41919
H         45.67337        17.75513        -2.62029
O         27.62305        49.07848        -0.74206
H         28.06522        48.28169        -1.12147
O         43.50056        56.14763        -4.22549
H         44.00075        55.33667        -4.48617
O         48.50514        46.69332         2.53261
H         49.03775        45.98456         2.97647
O         22.44472        35.45235         0.45390
H         23.12003        35.65232         1.14885
H         23.09543        23.64091        -2.67193
H         20.97480        24.89914        -2.42098
H         20.91805        27.36566        -2.55035
H         21.08934        29.45656        -3.31700
H         21.01779        31.80379        -2.65441
H         21.33257        33.79432        -2.93218
H         21.17783        36.12583        -2.24040
H         20.86518        37.76116        -1.08662
H         20.85686        40.18906        -1.11682
H         20.93315        42.11595        -1.49952
H         20.87008        44.52976        -1.33863
H         20.97987        46.65139        -1.35792
H         23.05256        50.04918         0.17978
H         21.07457        49.05554        -0.77842
H         24.81225        22.63014        -2.64270
H         24.41865        50.88721         1.08884
H         26.81388        21.46400        -1.98351
H         26.42967        52.12786         1.41230
H         30.31490        19.29368        -0.58634
H         28.27941        20.51087        -1.09735
H         30.14103        54.42743         1.71003
H         28.11293        53.16206         1.42500
H         32.01711        18.23400        -0.69773
H         31.87723        55.43836         1.41128
H         34.13684        17.04933        -0.66219
H         33.98906        56.57721         1.05261
H         37.95435        14.97761        -0.03398
H         35.83843        16.19931         0.06445
H         37.55480        58.38285        -0.65835
H         35.65169        57.46881         0.48290
H         39.56777        13.94121        -0.83284
H         38.90552        58.98230        -1.84506
H         43.85149        13.96934        -0.50461
H         41.71764        12.75697        -0.69104
H         42.77854        58.51339        -3.64926
H         40.70927        59.86342        -3.27841
H         45.55974        15.02452         0.00398
H         44.55392        57.98685        -2.34658
H         47.64541        16.26381        -0.22050
H         46.71820        56.94349        -1.98756
H         51.12406        18.78294        -2.49215
H         48.99420        17.53356        -2.37844
H         50.54578        54.70549        -2.89638
H         48.44000        55.91947        -2.69998
H         52.94704        19.66252        -2.13440
H         52.07914        53.60370        -3.34269
H         55.05546        20.77665        -1.61738
H         54.10892        52.34108        -3.73792
H         58.79553        22.67767        -0.35071
H         56.74010        21.70152        -1.21928
H         57.28116        49.77494        -5.13005
H         55.40120        51.12576        -4.46376
H         60.31257        23.24477         1.34854
H         58.73946        48.50481        -5.79591
H         62.48967        24.45042         1.44992
H         62.56340        26.90757         1.55015
H         62.61736        28.97622         1.38436
H         62.56619        31.36908         1.02405
H         62.22374        33.00630        -0.09340
H         62.07611        35.26174        -0.91130
H         61.15416        36.49666        -2.36628
H         60.91347        38.60135        -3.55295
H         60.97105        40.64064        -4.14726
H         60.72622        42.87087        -5.13627
H         60.24356        44.49271        -6.15870
H         60.12161        46.82278        -6.95446
