         276
 CSIRO Nanostructure Databank - Neutral Graphene Oxide Data Set
C        -11.32130         0.70063        -0.28687
C        -10.15360         1.52833         0.03605
C         -8.84386         0.75818         0.25017
C         -7.60051         1.50209        -0.05602
C         -6.36423         0.83037         0.40420
C         -5.08989         1.60258         0.37628
C         -3.83904         0.76980         0.75369
C         -2.48896         1.49930         0.57088
C         -1.17884         0.76058         0.49051
C          0.18076         1.46373         0.57878
C          1.30909         0.86331        -0.23233
C          2.46740         1.55707        -0.22519
C          3.78241         0.89595         0.02785
C          4.89796         1.48110        -0.82298
C          6.19081         0.74313        -0.86304
C          7.49326         1.46485        -1.03961
C          8.75363         0.74344        -0.70162
C         10.02414         1.50457        -0.54442
C         11.22316         0.65682        -0.52717
C        -10.04559         2.96592        -0.28251
C         -8.82904         3.61857        -0.29877
C         -7.58273         2.85867        -0.29192
C         -6.34593         3.55018        -0.86639
C         -4.99695         2.73652        -0.66555
C         -3.68636         3.56394        -0.47747
C         -2.45056         2.89000         0.03309
C         -1.23235         3.71506         0.30789
C          0.06038         3.00017         0.54819
C          1.35416         3.76157         0.45042
C          2.57990         3.00673         0.06661
C          3.79595         3.67627        -0.47787
C          4.87868         2.97004        -0.92847
C          6.12791         3.68467        -1.32767
C          7.48462         2.99061        -1.15501
C          8.63821         3.58883        -0.29324
C          9.97259         2.86309        -0.49815
C         -8.72190         5.05902        -0.11993
C         -7.52275         5.72318        -0.04732
C         -6.25071         5.14394        -0.65966
C         -5.00606         5.56057         0.18081
C         -3.68806         5.04338        -0.36353
C         -2.53085         5.76802        -0.42404
C         -1.17874         5.05777        -0.44211
C         -0.07404         5.91105         0.15467
C          1.31922         5.29183         0.43105
C          2.40086         5.86402        -0.48154
C          3.68815         5.14090        -0.68713
C          4.96054         5.88569        -0.85339
C          6.04384         5.16265        -1.25996
C          7.91022         6.08375        -0.49656
C          8.79104         5.08944        -0.06555
C         -7.45155         7.09520         0.41683
C         -6.26688         7.75319         0.62531
C         -4.97225         7.05726         0.42958
C         -3.75995         7.88015         0.12558
C         -2.64082         7.27562        -0.71637
C         -1.28576         8.12054        -0.69237
C         -0.11653         7.38027        -0.05661
C          1.19022         8.11728        -0.17209
C          2.44633         7.37025        -0.45651
C          3.75716         7.96807        -0.03446
C          5.02580         7.35295        -0.59347
C          6.34873         8.05901        -0.14868
C          7.55891         7.28284         0.15461
C         -6.17714         9.14654         1.04472
C         -5.06359         9.88848         0.85321
C         -3.89674         9.39129         0.02861
C         -2.55943        10.01334         0.39724
C         -1.37818         9.46157         0.05724
C         -0.09263        10.27897         0.30489
C          1.23179         9.51245         0.33006
C          2.42459        10.07406         0.64681
C          3.72124         9.32509         0.59708
C          5.02760        10.02302         0.72678
C          6.19957         9.39316         0.51088
C        -11.27890        -0.65519        -0.15724
C        -10.05443        -1.38999         0.09506
C         -8.85957        -0.72368         0.17412
C         -7.55674        -1.49801         0.13095
C         -6.37806        -0.67122         0.64075
C         -5.07002        -1.40629         0.62741
C         -3.92995        -0.58042         0.01183
C         -2.59250        -1.32762        -0.18835
C         -1.24056        -0.60959        -0.11667
C          0.03508        -1.33704        -0.50014
C          1.38148        -0.60797        -0.63820
C          2.59114        -1.34190        -0.08033
C          3.72228        -0.62242         0.09575
C          5.08062        -1.01089         0.60247
C          6.22939        -0.67200        -0.33615
C          7.50039        -1.37719        -0.07101
C          8.79748        -0.62463        -0.03074
C          9.89834        -1.49490        -0.66413
C         11.19367        -0.70126        -0.53281
C        -10.15229        -2.90557         0.19864
C         -8.82801        -3.65424         0.23024
C         -7.65619        -2.90406         0.83724
C         -6.32155        -3.69139         0.70649
C         -5.04952        -2.91430         0.50027
C         -3.86069        -3.58860        -0.13708
C         -2.57434        -2.81265        -0.32293
C         -1.27288        -3.55377        -0.55427
C          0.04445        -2.83674        -0.48225
C          1.22879        -3.52346        -0.34685
C          2.54669        -2.83615        -0.20038
C          3.73647        -3.68453         0.22161
C          4.92254        -3.06511         0.88070
C          6.17552        -3.40122         0.29235
C          7.47251        -2.71143         0.69517
C          8.72138        -3.52996         0.36464
C          9.84387        -2.92306        -0.09540
C         -8.77716        -4.95329        -0.16375
C         -7.58176        -5.79722        -0.13937
C         -6.34131        -5.18045         0.38772
C         -5.04759        -5.89170         0.13500
C         -3.82322        -5.07548        -0.14867
C         -2.50643        -5.80557         0.02677
C         -1.31198        -5.04561        -0.53607
C         -0.00396        -5.77419        -0.54780
C          1.28861        -5.01895        -0.50586
C          2.57138        -5.83673        -0.27440
C          3.58301        -5.10376         0.60646
C          4.77048        -5.82760         1.04760
C          6.16599        -5.24223         1.41517
C          7.38423        -5.77656         0.69671
C          8.71872        -5.00376         0.82930
C         -7.55833        -7.07282        -0.61628
C         -6.31431        -7.90315        -0.87134
C         -5.01284        -7.24305        -0.47101
C         -3.80832        -7.92426        -0.62300
C         -2.56602        -7.21399        -0.53972
C         -1.31276        -7.77208        -0.86991
C         -0.09532        -7.24065        -0.43755
C          1.17814        -8.05928        -0.45013
C          2.29704        -7.25345         0.29176
C          3.59792        -8.00754         0.18779
C          4.80385        -7.33273         0.61083
C          6.08611        -7.83775        -0.03047
C          7.35675        -7.06367         0.27386
C         -6.29818        -9.30163        -0.27992
C         -5.16017       -10.00876        -0.30353
C         -3.84934        -9.46314        -0.85392
C         -2.67762       -10.22118        -0.21834
C         -1.35816        -9.97570        -0.59393
C         -0.12436       -10.40423        -0.07367
C          1.10866        -9.51051         0.15886
C          2.45879       -10.14852        -0.15195
C          3.63466        -9.40449        -0.09331
C          4.96073       -10.04713        -0.06523
C          6.11171        -9.34850         0.05950
O         -1.75704         1.12963         1.77042
O          5.35407        -0.71753         1.80089
O          2.29443         3.31260         1.48084
O         -2.70962        -1.96097        -1.50159
O          5.29307         0.79529        -2.02981
O          7.01638         3.34106        -2.46346
O          5.81870         8.11408        -1.52089
O         -2.68928         3.00534        -1.41366
O          4.64327        -6.92468         2.02165
O          2.65038         5.32683        -1.79382
O         -0.46361         6.80535         1.23656
O         -5.65747        -5.93214         1.46532
O         -6.07279         5.78339        -1.89097
O          0.73789        -5.44113        -1.79672
O          6.82360        -1.54328        -1.35419
O         -1.49874        -4.34849        -1.78133
O         -9.60671         1.26745         1.38604
O         -4.09755        -4.33896        -1.37792
O          8.29802         0.79675        -2.09046
O         -5.92244         1.72534         1.54492
O          1.74687         8.01781        -1.55939
O         -1.25308        -8.96931        -1.58413
O          3.53658        -3.34411        -1.18785
O          7.20159         5.81133        -1.68522
O         -6.60797         3.35199        -2.33116
O         -3.94991         7.36265         1.46686
O         -0.77482        -0.61866        -1.50478
O          6.34207        -4.79693         2.56979
O          3.75607         8.09025         1.42601
O         -5.39215        -3.48191         1.80771
O         -5.73330        -1.04267         1.88001
O         -0.72386         3.60092         1.65545
O          5.86319        -7.53259        -1.45081
H          6.42578        -8.12853        -1.98793
O          0.67221         1.13330         1.91594
H          0.02722         1.52142         2.55281
O         -0.75492         4.78419        -1.79394
H         -1.44204         4.20276        -2.20230
O          1.05181        -9.47633         1.61508
H          1.25492        -8.56089         1.94143
O          1.73272         5.75562         1.72471
H          1.11095         5.39638         2.39277
O          1.92396        -7.03260         1.68268
H          2.77174        -6.91734         2.18741
O         -4.80892         2.01426        -1.88811
H         -4.59003         2.65048        -2.60063
O          4.75556        -3.01053         2.23719
H          5.34732        -2.30975         2.61689
O        -10.99651        -3.41687        -0.83805
H        -10.57281        -3.22654        -1.70004
O         -4.44593        -0.29470        -1.30100
H         -4.01411        -0.90133        -1.95060
O         -0.22646        11.05995         1.49192
H         -0.33246        10.45143         2.25178
O          9.13037        -0.36649         1.34906
H          8.69980        -1.04616         1.92103
O          6.12169        -3.90621        -0.96951
H          6.84285        -3.54293        -1.52944
O          4.12471         1.36778         1.35425
H          3.35524         1.23503         1.95003
O          1.67122        -0.61117        -2.06132
H          0.83177        -0.43647        -2.54336
O         -3.89046         0.49267         2.15247
H         -4.74564         0.84819         2.50296
O         -5.13483         4.89959         1.45867
H         -4.64995         5.44478         2.11905
O         -7.25201        -1.80574        -1.25915
H         -7.04590        -0.97247        -1.73489
O          9.76153        -5.71601         0.17994
H          9.67315        -5.59420        -0.78731
O          1.57915        -8.23550        -1.81758
H          1.72653        -7.33938        -2.20697
O         -3.14723         7.33944        -2.06961
H         -2.37119         7.49842        -2.66250
O          3.20782        -6.00549        -1.55527
H          3.37879        -5.10022        -1.91551
O          9.62926        -1.67845        -2.07364
H          9.16030        -0.88213        -2.41898
O         -2.27438        -5.89137         1.45983
H         -3.08611        -6.24031         1.88917
O          8.16602         3.13542         1.03243
H          8.91827         3.16405         1.66166
O          7.48228        -2.45084         2.11038
H          7.25480        -3.30293         2.57651
O         -3.84806        -9.68918        -2.28746
H         -2.95693        -9.42275        -2.61394
O         -7.93783        -2.70877         2.22277
H         -7.09019        -2.44924         2.65556
O         -0.93861         8.40171        -2.06550
H          0.01965         8.22555        -2.21667
O         -7.69897         4.15910        -2.72698
H         -7.27535         5.09156        -2.68252
O         -4.18645         9.75630        -1.34673
H         -3.90337         9.00465        -1.92582
O         -6.27483        -8.06821        -2.32118
H         -5.51619        -8.66544        -2.53576
H         12.14718        -1.25283        -0.51822
H         12.19780         1.16851        -0.47997
H         10.89886         3.45591        -0.44016
H          9.41286         5.32428         0.81510
H          8.07925         7.54107         1.08942
H          7.13695         9.92583         0.73619
H          5.02564        11.04745         1.12929
H          2.46183        11.12621         0.96967
H         -0.01562        11.01221        -0.54618
H         -2.55709        10.99550         0.89917
H         -5.04712        10.94085         1.17596
H         -7.06058         9.59595         1.52504
H         -8.39942         7.62215         0.61195
H         -9.64299         5.59558         0.16166
H        -10.97524         3.55079        -0.36129
H        -12.24099         1.19416        -0.63546
H        -12.18298        -1.24904        -0.35731
H        -10.67950        -3.12648         1.16885
H         -9.69694        -5.40588        -0.56895
H         -8.49076        -7.49767        -1.02066
H         -7.22770        -9.74250         0.11075
H         -5.15187       -11.04382         0.07242
H         -2.89128       -10.93935         0.58750
H         -0.14532       -11.26545         0.61530
H          2.52785       -11.24590        -0.21951
H          4.98896       -11.14730        -0.08283
H          7.07893        -9.87108         0.11592
H          8.29828        -7.51082        -0.09287
H          8.96158        -4.99760         1.92846
H         10.74619        -3.54365        -0.23567
