         280
 CSIRO Nanostructure Databank - Neutral Graphene Oxide Data Set
C         30.30165        31.71838         0.25230
C         30.48441        32.93743         0.66624
C         30.34904        35.99714         1.13698
C         30.34475        37.12720         0.63545
C         30.27258        40.33856         0.46848
C         30.30495        41.55509         0.12578
C         32.70647        29.05945        -0.61903
C         31.61650        29.63094        -0.43455
C         32.76563        31.60333         0.34859
C         31.44686        30.96270         0.05160
C         32.78304        32.91623         1.15690
C         31.48296        33.74418         1.03805
C         32.68342        35.83173         0.60528
C         31.53870        35.15405         1.50455
C         32.68517        37.35280         0.62782
C         31.48781        38.01033         0.48283
C         32.64505        40.24620         0.31909
C         31.39516        39.41432        -0.02110
C         32.65856        41.63270        -0.29736
C         31.35692        42.42973        -0.16788
C         32.70134        44.42095        -0.44929
C         31.61496        43.79267        -0.38464
C         35.44462        27.65286        -1.21601
C         35.19658        29.00236        -0.85850
C         34.01779        29.62272        -0.53550
C         35.28381        31.59242         0.37819
C         33.96170        30.99022         0.00621
C         35.29753        32.98692         0.97700
C         34.03320        33.76909         0.93377
C         35.25296        35.93862         0.72914
C         34.01970        35.14090         0.82418
C         35.22369        37.31707         0.67854
C         33.95244        38.06474         1.05495
C         35.21913        40.37963         0.60804
C         33.92565        39.58640         0.74810
C         35.20976        41.77001         0.01791
C         33.94902        42.34612        -0.57105
C         35.26824        44.56096        -0.55897
C         34.00872        43.86658        -1.00417
C         35.42332        45.94960        -0.47106
C         37.77688        27.55653        -1.59649
C         36.43151        26.94102        -1.47680
C         37.76789        28.90562        -0.82508
C         36.50202        29.79178        -1.06597
C         37.76337        31.63968         0.06373
C         36.54631        31.01494        -0.16256
C         37.81752        32.90630         0.78157
C         36.59637        33.75205         1.22258
C         37.77941        36.02055         0.79774
C         36.56288        35.14893         0.52391
C         37.71182        37.43403         0.26978
C         36.49408        38.13227         0.91307
C         37.68154        40.30337         0.32717
C         36.50999        39.62924         0.54788
C         37.72158        41.82278         0.30046
C         36.51392        42.37818        -0.50761
C         37.74994        44.62223        -0.24585
C         36.51416        43.90501        -0.41812
C         37.76352        46.05055        -0.18707
C         36.48022        46.61021        -0.25595
C         40.07587        24.73533        -0.90505
C         39.21261        25.36967        -1.54467
C         40.33865        27.49563        -1.20545
C         39.07051        26.81958        -1.68859
C         40.29800        28.79658        -0.80328
C         39.06765        29.68513        -1.07087
C         40.25652        31.63124        -0.06503
C         39.04785        31.00657        -0.28964
C         40.31430        32.96605         0.50738
C         39.05953        33.39458         1.07999
C         40.25856        36.13283         0.72121
C         39.00020        35.59027         1.21298
C         40.24053        37.42965         0.32912
C         38.99512        38.22064         0.61991
C         40.25488        40.33385         0.26607
C         38.96897        39.59481        -0.08392
C         40.25700        41.72931         0.32764
C         39.04296        42.42152        -0.24219
C         40.22244        44.63924         0.05200
C         39.02633        43.93258        -0.08543
C         40.29700        46.06306        -0.12633
C         38.99890        46.85121         0.10337
C         40.24518        48.60834        -1.04380
C         39.14728        48.13161        -0.70397
C         42.67871        24.66603        -0.22415
C         41.48609        25.13750        -0.93435
C         42.89621        27.38779        -0.80603
C         41.59247        26.66852        -1.11459
C         42.82723        28.79630        -0.33949
C         41.46891        29.44364        -0.09078
C         42.78509        31.61170         0.07815
C         41.53827        30.94042        -0.47259
C         42.76302        33.09136         0.27968
C         41.44054        33.78261         0.42954
C         42.65764        35.88567        -0.09676
C         41.52319        35.28065         0.82724
C         42.70635        37.41662        -0.19102
C         41.45108        38.18782        -0.00579
C         42.74296        40.26952         0.63758
C         41.46089        39.62659         0.31118
C         42.80221        41.74190         0.68076
C         41.49355        42.45052         0.65619
C         42.79665        44.65341         0.36645
C         41.47297        43.95130         0.49836
C         42.80296        45.85790        -0.56393
C         41.50584        46.67450        -0.51206
C         42.84650        48.43842        -1.38541
C         41.53578        48.01404        -1.05460
C         43.74144        25.26294        -0.04147
C         45.31108        27.27477         0.07913
C         44.22793        26.56070        -0.67325
C         45.18676        28.70783         0.70778
C         43.98134        29.47911         0.28842
C         45.25226        31.66431         0.50935
C         44.12801        30.90664        -0.19242
C         45.31594        33.12704         0.28299
C         44.04125        33.79884        -0.18285
C         45.31021        35.94514        -0.32358
C         44.05161        35.27493         0.24073
C         45.29890        37.41872        -0.51501
C         44.02197        38.15181        -0.23542
C         45.30684        40.29371         0.44566
C         44.05488        39.50795         0.41620
C         45.27509        41.65086         0.63694
C         44.01935        42.39612         0.69392
C         45.36499        44.48048         0.02232
C         44.08934        43.88467         0.55498
C         45.32114        45.82763        -0.45119
C         44.10546        46.69618        -0.30705
C         43.94521        47.83378        -1.33325
C         47.63937        27.25271         1.01365
C         46.55174        26.84227         0.41815
C         47.70916        28.74108         1.07200
C         46.53547        29.46251         0.37273
C         47.80085        31.67442         0.78360
C         46.51553        30.92689         0.79636
C         47.80829        33.19984         0.66670
C         46.48191        33.83407         0.26221
C         47.81494        35.97110        -0.10718
C         46.47907        35.25642        -0.14159
C         47.86805        37.41018        -0.69406
C         46.58709        38.20151        -0.41823
C         47.87836        40.10210         0.76085
C         46.59029        39.60043         0.11851
C         47.87458        41.63799         0.88893
C         46.53637        42.44972         0.93286
C         47.85610        44.34622        -0.19798
C         46.57820        43.75697         0.13546
C         47.67026        45.63501        -0.75946
C         46.59736        46.28440        -0.83438
C         50.30436        29.04863         1.54150
C         48.94352        29.55782         1.36242
C         50.28251        31.72572         0.75823
C         48.99517        31.01727         0.93708
C         50.27512        33.04319         0.20304
C         48.94358        33.58351        -0.32360
C         50.25775        35.87495        -0.51220
C         48.95532        35.13991        -0.75544
C         50.28616        37.24185        -0.13284
C         49.13452        38.05299        -0.14972
C         50.42798        40.22200         0.40693
C         49.13477        39.56770        -0.07030
C         50.46002        41.57236         0.49619
C         49.17051        42.33752         0.59546
C         50.41195        44.16600        -0.20844
C         49.09459        43.71773         0.03656
C         51.35443        29.69200         1.42543
C         52.66958        31.85572         0.82137
C         51.53522        31.06232         1.04610
C         52.59183        33.01382         0.31766
C         51.46903        33.74328        -0.08751
C         52.66501        35.90081        -0.56658
C         51.48621        35.03152        -0.87294
C         52.69697        37.01962        -0.06372
C         51.58600        37.89515         0.31416
C         52.83385        40.23255         0.48757
C         51.65527        39.36077         0.55500
C         52.88384        41.46116         0.38350
C         51.81807        42.45096         0.71257
C         51.54264        43.62290        -0.19602
O         47.96706        29.27827         2.38691
O         43.07036        28.47765        -1.78418
O         35.17340        41.58757         1.46206
O         41.29192        43.36458         1.81240
O         44.51256        37.99902        -1.60817
O         42.82831        32.14119         1.42490
O         38.44684        27.43067        -2.84854
O         46.59517        39.36546        -1.32080
O         48.69672        42.12519         2.00080
O         33.28830        41.58166        -1.62816
O         43.51696        44.72628         1.61323
O         38.91678        39.52654        -1.50052
O         33.01130        40.22704         1.71403
O         39.15522        34.44005         1.99782
O         51.55846        38.42155         1.65987
O         41.94790        37.88883        -1.37295
O         41.83417        25.70705        -2.21442
O         45.56807        31.22975         1.87831
O         43.41226        39.51835         1.72586
O         35.29405        31.81068         1.86691
O         48.08973        36.21842         1.28467
H         48.08360        35.36378         1.78862
O         44.09176        33.67216        -1.62430
H         43.47777        34.34649        -2.00813
O         31.83517        35.22034         2.87565
H         32.00020        34.31182         3.21741
O         51.40974        34.71693        -2.27501
H         52.08916        34.04094        -2.48270
O         36.64962        33.99789         2.63246
H         36.50803        33.14084         3.08913
O         49.03144        40.05585        -1.42957
H         48.52971        39.39378        -1.96845
O         41.83748        35.32206         2.23750
H         41.05237        34.96137         2.71251
O         33.97329        43.93003        -2.40712
H         33.42738        43.17658        -2.73329
O         39.16567        42.16073        -1.67326
H         39.14618        41.14579        -1.80049
O         46.77612        29.41171        -1.03590
H         46.08162        29.94946        -1.49690
O         48.01085        37.45098        -2.13249
H         47.13367        37.30049        -2.54456
O         42.24993        35.42710        -1.41122
H         41.90517        36.22510        -1.89454
O         31.29791        39.32512        -1.43542
H         30.57806        38.69934        -1.66316
O         48.67610        32.79856        -1.49486
H         48.46190        33.42828        -2.23020
O         32.81678        32.54033         2.56549
H         33.66831        32.05092         2.70495
O         44.69556        26.25797        -1.96632
H         43.94124        25.89373        -2.48462
O         47.92160        39.54022         2.07196
H         48.46163        40.13382         2.63999
O         33.93333        37.97625         2.51824
H         33.27653        38.63980         2.83841
O         44.46369        30.89769        -1.60634
H         43.86985        30.24763        -2.05427
O         48.72731        35.13897        -2.18366
H         49.61018        35.14704        -2.62689
O         37.67254        42.31138         1.65143
H         36.81634        42.02744         2.05560
O         41.22894        29.32064         1.32240
H         40.33011        29.65674         1.52534
O         46.33504        42.86298         2.30373
H         47.22397        43.01035         2.70457
O         36.61712        38.08879         2.36591
H         35.70322        38.13026         2.75405
O         44.06056        47.25513         0.97994
H         44.96544        47.47357         1.28236
O         44.32037        35.37102         1.65012
H         43.54552        35.05026         2.17309
O         41.66151        30.99346        -1.92430
H         42.03384        31.86634        -2.17726
O         37.79108        28.55731         0.57443
H         37.00000        28.01019         0.77250
O         36.56632        41.99013        -1.88354
H         37.47904        42.18436        -2.22024
O         51.91433        42.90275         2.02523
H         52.35640        42.22935         2.58052
O         37.49827        37.39539        -1.15441
H         37.97010        38.19261        -1.56669
O         32.28719        35.45973        -0.74430
H         32.96455        35.78856        -1.37170
O         39.12597        30.03774        -2.47186
H         40.02883        30.40907        -2.64256
O         48.15566        33.66610         2.00078
H         47.49302        33.30640         2.62922
O         36.45374        30.24970        -2.42682
H         37.37387        30.28465        -2.78848
O         36.61990        34.85458        -0.89552
H         36.86358        35.70028        -1.35579
O         45.15019        28.45146         2.12540
H         45.09178        29.33005         2.56946
O         38.97174        47.20603         1.48684
H         38.07632        47.53810         1.70895
O         42.90592        45.29847        -1.89031
H         42.98789        46.03732        -2.53261
O         39.13469        38.49273         2.02970
H         38.24868        38.60181         2.45365
