         404
 CSIRO Nanostructure Databank - Neutral Graphene Oxide Data Set
C          1.22288         3.57536        -1.25107
C          0.02943         4.27452        -1.26909
C          1.20864         6.40283        -0.95397
C          0.01680         5.66791        -1.10747
C          1.20247         7.82282        -0.68029
C         -0.04881         8.49011        -0.38889
C          1.11724        10.43666         0.51306
C         -0.12285         9.71875         0.19053
C          1.15812        11.87494         1.08541
C         -0.04036        12.70642         1.27264
C          1.16420        14.87611         1.02108
C         -0.01600        14.07277         1.24988
C          1.13708        16.26498         0.84405
C         -0.03612        17.04848         1.02133
C          1.18747        19.17964         0.81229
C         -0.01625        18.43000         0.97259
C          1.18632        20.64423         0.91310
C         -0.01106        21.38241         1.13220
C          1.17174        23.50966         0.92886
C         -0.02015        22.76303         1.11612
C          1.19464        24.95380         0.88127
C         -0.01053        25.72078         1.02745
C          1.14411        27.83803         0.58640
C         -0.02858        27.09048         0.86116
C          1.10913        29.23733         0.38555
C         -0.03385        30.02607         0.61935
C          1.12106        32.12898         0.07973
C         -0.02978        31.41343         0.43848
C          1.12906        33.58161         0.01532
C         -0.10538        34.33063        -0.11228
C          1.05534        36.49242        -0.18641
C         -0.13216        35.66581        -0.39239
C          1.21781        37.83826        -0.76274
C          3.66845         3.54851        -1.07655
C          2.45899         4.26787        -1.11162
C          3.69458         6.41136        -0.93811
C          2.46153         5.70305        -0.99958
C          3.69316         7.87143        -0.90872
C          2.40990         8.57380        -0.66789
C          3.29590        10.91703        -0.51163
C          2.30286         9.94439        -0.23981
C          3.54821        12.05057         0.24057
C          2.45167        12.64187         1.00240
C          3.68992        14.88929         0.54945
C          2.45909        14.17135         0.99118
C          3.67338        16.30565         0.51165
C          2.35061        16.99888         0.30527
C          3.63827        19.15405         0.53399
C          2.39579        18.47810         0.61864
C          3.63213        20.64573         0.31649
C          2.38234        21.36035         0.76047
C          3.61973        23.51588         0.65808
C          2.39534        22.78936         0.79420
C          3.62961        24.91471         0.51989
C          2.40557        25.63134         0.63898
C          3.63694        27.73044         0.01559
C          2.47195        27.13366         0.75963
C          3.56743        29.12610        -0.43205
C          2.28629        29.91769        -0.21540
C          3.52222        32.05555        -0.49706
C          2.35109        31.40618        -0.17632
C          3.54935        33.55876        -0.71083
C          2.34606        34.24646        -0.10660
C          3.64688        36.40023        -0.20224
C          2.39502        35.69115         0.01950
C          3.67897        37.78667        -0.47385
C          2.42704        38.44529        -0.84583
C          6.12560         3.50380        -0.89625
C          4.90348         4.21668        -0.95238
C          6.18792         6.29185        -0.85967
C          4.91694         5.65853        -0.91756
C          6.20978         7.73655        -1.00272
C          4.94991         8.49090        -1.00942
C          6.20015        10.57659        -0.51043
C          5.15605         9.91375        -1.08902
C          6.14329        11.99080        -0.04059
C          4.87573        12.71609         0.28910
C          6.13346        14.89569         0.25377
C          4.88914        14.19671         0.34951
C          6.13280        16.32501         0.38946
C          4.88276        17.02621         0.45486
C          6.13422        19.18756         0.48480
C          4.87232        18.47260         0.47599
C          6.17048        20.60131         0.58740
C          4.89726        21.30355         0.80945
C          6.15610        23.49692         0.54752
C          4.89687        22.80756         0.84010
C          6.08317        24.88191         0.19566
C          4.88418        25.60263         0.24356
C          6.03983        27.72590        -0.44948
C          4.84601        27.02876        -0.07360
C          6.02531        29.13102        -0.68083
C          4.82545        29.84921        -0.67425
C          6.05065        32.09789        -0.92813
C          4.74602        31.31219        -0.88294
C          6.04773        33.49694        -0.40451
C          4.87987        34.19013        -0.30530
C          6.15546        36.40468         0.22076
C          4.88061        35.63816         0.05333
C          6.15811        37.94188         0.13093
C          4.88883        38.48996        -0.47939
C          8.58479         3.44006        -0.68995
C          7.36937         4.15547        -0.74034
C          8.64757         6.27546        -0.39572
C          7.40294         5.59710        -0.68318
C          8.68909         7.66649        -0.16792
C          7.50959         8.44151        -0.55180
C          8.62078        10.53780         0.37724
C          7.35859         9.81487        -0.03202
C          8.63690        12.00514         0.18791
C          7.41574        12.75326        -0.32963
C          8.58694        14.88117         0.23772
C          7.36381        14.19702         0.11104
C          8.58784        16.31123         0.37635
C          7.36200        17.03612         0.39801
C          8.59184        19.21023         0.48655
C          7.37050        18.48156         0.46145
C          8.62607        20.62199         0.55218
C          7.38281        21.33224         0.59817
C          8.61837        23.47731         0.32658
C          7.36476        22.77757         0.51888
C          8.61381        24.84884        -0.00090
C          7.32597        25.51006        -0.29182
C          8.59643        27.71596        -0.55408
C          7.30767        26.98815        -0.61900
C          8.59563        29.10955        -0.70260
C          7.31646        29.80084        -0.98788
C          8.60981        31.98092        -0.74807
C          7.33529        31.31956        -1.02918
C          8.61457        33.41087        -0.36835
C          7.35178        34.14358        -0.07427
C          8.63924        36.38856        -0.49028
C          7.44097        35.65639         0.02182
C          8.55898        37.85174        -0.75899
C          7.38137        38.52632        -0.54189
C         11.04053         3.38910        -0.62330
C          9.82577         4.10197        -0.52015
C         11.09833         6.17061        -0.00818
C          9.86375         5.52043        -0.28714
C         11.13811         7.60484         0.31240
C          9.88436         8.36293         0.25948
C         11.06513        10.49369         0.92023
C          9.87779         9.75438         0.45496
C         11.01766        11.98173         0.76471
C          9.82174        12.68527         0.31951
C         11.02251        14.85814         0.44334
C          9.82842        14.14795         0.29017
C         11.02837        16.28469         0.41390
C          9.82653        17.00568         0.41232
C         11.19087        19.20001         0.62581
C          9.86086        18.47583         0.33854
C         11.12881        20.68912         0.83523
C          9.88887        21.34701         0.60944
C         11.07418        23.51240         0.29614
C          9.86089        22.77572         0.44718
C         11.06536        24.91018         0.01916
C          9.82357        25.58084        -0.15007
C         11.04918        27.71881        -0.39994
C          9.81407        27.00067        -0.39273
C         11.02768        29.13143        -0.51172
C          9.82103        29.83820        -0.68156
C         11.05343        32.06090        -0.66453
C          9.80997        31.29830        -0.72295
C         11.08547        33.42799        -0.85029
C          9.79700        34.15218        -0.90528
C         11.07221        36.34769        -1.44951
C          9.76366        35.62136        -1.12400
C         11.03052        37.81629        -1.07172
C          9.80838        38.50606        -1.00967
C         13.48343         3.36319        -0.84759
C         12.27325         4.04231        -0.47021
C         13.58884         6.02545         0.27564
C         12.29161         5.41387        -0.05540
C         13.66296         7.49683         0.67920
C         12.34410         8.24457         0.54586
C         13.74732        10.32242         0.76596
C         12.42371         9.66238         0.95974
C         13.93119        11.67441         1.05519
C         12.07067        12.78266         1.12675
C         13.51769        14.71566         0.50966
C         12.26183        14.14566         0.69381
C         13.52956        16.17571         0.27917
C         12.28812        16.94796         0.55102
C         13.64438        18.77680         1.27413
C         12.34954        18.29393         0.87729
C         13.59842        20.97215         1.25255
C         12.31445        21.49175         0.88994
C         13.56727        23.53193         0.24989
C         12.32271        22.84749         0.46863
C         13.55623        24.92054        -0.01149
C         12.30641        25.62843        -0.07954
C         13.56113        27.74689        -0.35181
C         12.30332        27.02588        -0.26221
C         13.56317        29.12749        -0.45353
C         12.29677        29.85858        -0.31259
C         13.59297        32.07019        -0.55221
C         12.31096        31.35170        -0.37796
C         13.55646        33.50349        -0.63434
C         12.31845        34.19451        -0.81514
C         13.51247        36.33401        -0.84842
C         12.30778        35.60454        -0.95361
C         13.49768        37.78746        -0.89889
C         12.25665        38.48548        -0.96500
C         15.88428         3.41068        -1.43353
C         14.70482         4.00943        -0.89813
C         16.04191         6.13261        -0.53775
C         14.83370         5.33559        -0.25468
C         16.03274         7.55473        -0.32729
C         14.85524         8.22906         0.06552
C         16.08619        10.37753        -0.01153
C         14.87298         9.64132         0.20149
C         16.10042        11.80267         0.08091
C         14.94558        12.48284         0.49592
C         16.10949        14.69384         0.10182
C         14.76232        13.92898         0.04715
C         16.17044        16.18987         0.21645
C         14.85027        16.92959         0.24141
C         16.07624        19.10806         0.70475
C         14.84553        18.26798         0.86152
C         16.03068        20.61715         0.66152
C         14.79934        21.45588         0.79108
C         16.05940        23.42942         0.09131
C         14.82502        22.81058         0.31431
C         16.05079        24.85445        -0.30376
C         14.79351        25.62908        -0.18437
C         16.06947        27.77177        -0.21466
C         14.81957        27.01645        -0.31684
C         16.03584        29.17123        -0.24375
C         14.82554        29.88108        -0.79176
C         16.02774        32.09769        -0.39814
C         14.79075        31.37313        -0.50911
C         16.01410        33.53132        -0.43909
C         14.77617        34.22817        -0.59506
C         15.97482        36.38044        -0.56046
C         14.75166        35.65347        -0.66215
C         15.95019        37.81847        -0.63343
C         14.70357        38.48743        -0.79190
C         18.28838         3.46813        -1.97527
C         17.09231         4.09847        -1.47867
C         18.39142         6.21805        -1.25230
C         17.15853         5.49517        -1.08505
C         18.45044         7.60552        -0.93145
C         17.25175         8.28868        -0.54690
C         18.53830        10.40078        -0.38200
C         17.28601         9.68936        -0.34507
C         18.57207        11.79826        -0.07887
C         17.34979        12.53545         0.03172
C         18.57600        14.58818         0.62255
C         17.36234        13.91200         0.28147
C         18.55920        15.95281         1.09001
C         17.45183        16.89188         0.67509
C         18.48892        19.28391         1.48890
C         17.42178        18.40786         0.87402
C         18.48132        20.70283         1.20898
C         17.30128        21.37422         0.76939
C         18.53526        23.46901         0.48005
C         17.29787        22.74501         0.43223
C         18.61643        24.84121        -0.07085
C         17.35340        25.61231        -0.34095
C         18.53434        27.76501         0.10234
C         17.32801        27.07449        -0.07836
C         18.53549        29.21648         0.34150
C         17.18881        29.96798         0.14529
C         18.46356        32.13246        -0.01598
C         17.23871        31.41845        -0.14573
C         18.45985        33.56549        -0.11288
C         17.22668        34.25798        -0.31052
C         18.42012        36.43223        -0.26774
C         17.20370        35.69454        -0.37740
C         18.38813        37.86337        -0.34980
C         17.15464        38.53192        -0.52977
C         19.46663         4.15185        -2.06871
C         20.77065         6.25685        -1.79591
C         19.55249         5.54346        -1.70763
C         20.84089         7.59420        -1.43899
C         19.69365         8.30416        -1.00741
C         20.97068        10.41973        -0.50595
C         19.74628         9.70612        -0.64007
C         21.00192        11.73384        -0.08201
C         19.80278        12.46476         0.14404
C         20.93931        14.38437         1.25034
C         19.78716        13.82304         0.64895
C         20.85432        15.59766         1.90587
C         19.67560        16.37292         1.81811
C         20.70505        19.58014         2.51339
C         19.59756        18.77389         2.15950
C         20.75645        20.89746         2.11310
C         19.64913        21.49556         1.45739
C         20.85846        23.69019         1.27606
C         19.67967        22.87616         1.03730
C         20.94936        24.99056         0.90700
C         19.88983        25.62793         0.11146
C         20.97500        27.86985        -0.02746
C         19.81692        27.11590         0.05236
C         20.94657        29.28710        -0.06657
C         19.77078        29.98725         0.14789
C         20.88569        32.19851         0.29102
C         19.71047        31.44121         0.16112
C         20.87199        33.59000         0.22836
C         19.67977        34.30128         0.01176
C         20.83776        36.52298         0.01728
C         19.66468        35.75724        -0.07830
C         20.80267        37.92439        -0.06644
C         19.60360        38.59238        -0.24556
O          9.38569        34.72976        -2.22287
O          7.17950         8.28271        -1.96529
O          1.28570        10.70521         1.95852
O          1.63499        36.29313         1.12298
O         16.32063        15.54576        -1.08681
O         17.72126        29.64176         1.47361
O          4.85756        21.98839         2.08802
O         12.26223        30.67483         0.94765
O         14.10502        16.69859        -0.98859
O          7.37198        30.51959        -2.25768
O         11.65891         9.99006         2.14891
O         19.59701        24.96201        -1.16216
O         15.99541        19.80938        -0.58913
O          5.73285        12.10103         1.35346
O          2.75483        13.38533         2.20734
O          8.14303        33.54390         1.01554
O          4.12086        10.68083        -1.62098
O          7.64613        10.01735         1.37796
O          2.57201        29.36498        -1.54917
O         10.70627        18.95724        -0.75258
O         17.89563        17.81758        -0.38021
O          5.27577        31.88447        -2.15259
O         19.64020        17.47856         2.67164
O          5.44768        35.92566         1.41120
O         14.43931         5.23046         1.17360
O         16.72331        25.18089        -1.58789
O          7.24179        25.97847        -1.69106
O          8.49480        36.08590         0.93929
O         13.63936        19.88162         2.12270
O         13.06344        12.28174         1.96140
O         13.93474         7.54040         2.11108
H         14.40436         6.70044         2.33072
O         14.92566        29.81723        -2.26984
H         15.05816        28.87617        -2.51674
O         11.21192        36.36678        -2.89845
H         10.73394        35.57266        -3.23780
O          2.15419        16.95027        -1.16915
H          2.92248        17.40500        -1.57723
O          2.80859        27.38057         2.19720
H          2.13332        26.90977         2.73243
O          3.42116        33.80730        -2.15228
H          4.03978        33.17324        -2.59709
O          7.53996        12.77091        -1.78884
H          8.33578        13.29501        -2.02096
O          6.18033        38.45704         1.49703
H          5.78199        37.75819         2.06683
O         14.46257        13.77894        -1.37322
H         14.74682        14.62555        -1.80125
O          3.68898        20.81873        -1.14692
H          2.85207        20.46960        -1.52085
H          1.23206         2.48077        -1.35101
H         -0.92196         3.73820        -1.39052
H         -0.95600         6.17568        -1.10724
H         -0.98893         7.95116        -0.56647
H         -1.09188        10.13299         0.50214
H         -0.99492        12.19388         1.46132
H         -0.97388        14.59617         1.38279
H         -0.98466        16.55390         1.27367
H         -0.96293        18.96058         1.13952
H         -0.96333        20.85664         1.28057
H         -0.98005        23.28036         1.24603
H         -0.96114        25.20535         1.21510
H         -1.00098        27.60222         0.88354
H         -0.95525        29.55701         0.99035
H         -0.95864        31.96003         0.65138
H         -1.04201        33.76184        -0.20071
H         -1.06043        36.14285        -0.73995
H          0.32029        38.34525        -1.14884
H          3.64731         2.45045        -1.13681
H          2.49532        39.46644        -1.24981
H          6.10211         2.40545        -0.95811
H          4.87436        39.56467        -0.71635
H          8.57394         2.34611        -0.80593
H          7.36816        39.61833        -0.68355
H         11.02027         2.32156        -0.88705
H          9.82903        39.60653        -0.96795
H         13.40004         2.33248        -1.22378
H         12.26317        39.57981        -0.84309
H         15.83053         2.37912        -1.81273
H         14.69308        39.58734        -0.82321
H         18.23613         2.40963        -2.26941
H         17.14138        39.63059        -0.58585
H         20.37293         3.64799        -2.43532
H         21.67370         5.73532        -2.14469
H         21.80682         8.11176        -1.51577
H         21.92321         9.90650        -0.69667
H         21.97588        12.22579         0.04740
H         21.87647        13.81350         1.28949
H         21.70546        15.98889         2.47803
H         21.54033        19.12478         3.06075
H         21.65715        21.48053         2.34053
H         21.69413        23.25813         1.84181
H         21.81837        25.58996         1.21513
H         21.94648        27.36250        -0.10615
H         21.89153        29.82119        -0.23447
H         21.84572        31.69173         0.45905
H         21.82364        34.12454         0.34680
H         21.81105        36.03480         0.15953
H         21.74097        38.49102         0.01245
H         19.57968        39.68957        -0.30959
