         671
 CSIRO Nanostructure Databank - Neutral Graphene Oxide Data Set
C          6.01426        31.82570         1.07056
C          5.96163        33.12248         1.48883
C          8.36065        27.72933        -0.14709
C          8.35235        29.12759        -0.08331
C          7.19524        29.84733         0.29449
C          8.39475        32.04107         0.31864
C          7.21242        31.22483         0.53429
C          8.25668        33.43841         0.63792
C          7.10608        33.98213         1.32855
C          8.26734        36.15408         1.67804
C          7.09766        35.31327         1.74819
C          8.30835        37.46082         2.13151
C         10.74792        23.40805        -0.33545
C         10.70273        24.76190        -0.07800
C          9.50933        25.54572        -0.24970
C         10.90885        27.58106        -0.29247
C          9.53779        26.93477        -0.21556
C         10.88870        29.10023        -0.25293
C          9.58984        29.90996        -0.29078
C         10.93364        31.95235        -0.13237
C          9.62304        31.37622        -0.04227
C         11.12959        33.39693        -0.14082
C          9.24844        34.39868         0.33262
C         10.73392        36.23844         1.09885
C          9.43913        35.59585         1.02681
C         10.79750        37.52535         1.61329
C          9.60414        38.20673         2.25254
C         10.77693        40.35482         1.81329
C          9.57311        39.65973         1.88428
C         10.81514        41.76776         1.65418
C         13.22838        19.15622        -0.85712
C         13.19509        20.52788        -0.54756
C         11.98653        21.28482        -0.57609
C         13.16714        23.28007         0.22833
C         11.95658        22.62980        -0.19763
C         13.11954        24.64316         0.92117
C         11.84669        25.42580         0.61876
C         13.13978        27.66681         1.16294
C         11.88014        26.92134         0.68446
C         13.24734        29.09582         0.66446
C         12.10851        29.79055         0.17752
C         13.42161        31.92728         0.06014
C         12.10995        31.18913         0.06796
C         13.36259        33.26632         0.82131
C         12.11863        34.05026         0.52978
C         13.31685        36.19212         1.15781
C         12.01534        35.40210         1.20867
C         13.28663        37.54673         1.47299
C         12.04966        38.23767         1.69796
C         13.28013        40.36246         2.05744
C         12.04461        39.63686         1.87627
C         13.25540        41.80576         2.03192
C         12.02804        42.48446         1.72997
C         13.24501        44.61125         1.61197
C         12.05562        43.89254         1.54272
C         13.22148        46.12136         1.56810
C         15.73270        14.93064        -1.43052
C         15.67684        16.25452        -1.05823
C         14.49435        17.05218        -1.20800
C         15.65534        19.08036        -0.41197
C         14.43031        18.39490        -0.79877
C         15.62456        20.49586        -0.22053
C         14.42738        21.22449        -0.24723
C         15.62314        23.34620         0.44333
C         14.38937        22.63054         0.09806
C         15.62659        24.67133         0.75414
C         14.36330        25.45149         0.47332
C         15.62526        27.52558         1.08856
C         14.42977        26.88675         0.93033
C         15.63275        28.99196         1.36226
C         14.44825        29.78233         0.93751
C         15.76896        31.90089         0.87496
C         14.58997        31.16032         0.64083
C         15.82441        33.31422         0.79315
C         14.59647        34.10907         0.42541
C         15.78805        36.11917         1.30110
C         14.56961        35.49435         1.02828
C         15.75945        37.48893         1.86164
C         14.57646        38.33482         1.45693
C         15.71477        40.33726         2.62818
C         14.49521        39.66721         2.15284
C         15.69425        41.87826         2.56527
C         14.45670        42.54777         2.10908
C         15.73930        44.72227         2.09047
C         14.46203        43.93712         1.87326
C         15.76044        46.04090         1.35270
C         14.52875        46.74612         1.14514
C         15.75564        48.85643         0.57349
C         14.51102        48.03125         0.67130
C         15.75612        49.86829        -0.55551
C         18.20055        10.64841        -2.21348
C         18.12436        12.05801        -1.91937
C         16.95124        12.66558        -1.57289
C         18.19399        14.79705        -1.09228
C         16.88467        14.05074        -0.98535
C         18.17659        16.18091        -0.57120
C         16.83463        16.86101        -0.28408
C         18.10796        19.08541        -0.20803
C         16.87669        18.38157        -0.36406
C         18.14495        20.44936         0.05305
C         16.90273        21.20887        -0.07633
C         18.17347        23.30878         0.70860
C         16.91937        22.66730         0.23998
C         18.13989        24.60778         1.14875
C         16.82676        25.31771         1.41111
C         18.10335        27.47023         1.25057
C         16.90579        26.81497         1.16827
C         18.15951        28.94234         1.03014
C         16.94652        29.71374         1.44734
C         18.25086        31.89014         1.02939
C         16.97983        31.24235         1.50862
C         18.27084        33.26653         1.08521
C         17.02249        34.00664         1.10188
C         18.28888        36.11069         1.50550
C         17.03449        35.41318         1.29758
C         18.32018        37.49511         1.90086
C         17.03764        38.14288         2.27915
C         18.27383        40.36718         2.27894
C         17.07066        39.58857         2.76992
C         18.25925        41.82851         2.66700
C         16.97969        42.56935         2.30208
C         18.21656        44.42567         1.23109
C         16.97860        43.86466         1.89331
C         18.22656        45.93128         1.08629
C         16.98713        46.64646         1.00129
C         18.20492        48.63634         0.22003
C         17.01400        48.01725         0.56283
C         18.18210        50.10388        -0.15816
C         16.90589        50.51721        -0.87382
C         18.08568        52.36788        -2.03385
C         16.94401        51.65986        -1.78047
C         18.14006        53.56349        -2.87086
C         20.65050         6.40024        -2.93238
C         20.65922         7.88001        -2.60070
C         19.47615         8.57155        -2.58737
C         20.66759        10.69784        -2.13761
C         19.41314         9.98695        -2.33049
C         20.66386        12.08806        -1.94025
C         19.38384        12.85868        -2.11911
C         20.65094        14.88637        -1.36380
C         19.37703        14.20225        -1.45499
C         20.65657        16.38651        -1.38580
C         19.42695        16.97762        -0.71805
C         20.59312        18.97306         0.11766
C         19.39907        18.48174        -0.70607
C         20.59588        20.48316         0.14168
C         19.39260        21.17704         0.24096
C         20.65532        23.26621         0.79734
C         19.41136        22.58220         0.56177
C         20.67992        24.62471         1.23105
C         19.39232        25.31231         1.61395
C         20.60772        27.55083         1.68415
C         19.42743        26.75210         1.07825
C         20.72641        28.95858         1.10959
C         19.45937        29.64618         0.74814
C         20.74306        31.84982         1.00961
C         19.48293        31.16497         0.56035
C         20.71769        33.28106         1.01294
C         19.52074        33.99891         1.04569
C         20.75081        36.14070         1.38832
C         19.50947        35.42891         1.27489
C         20.76350        37.53817         1.68427
C         19.51648        38.22821         1.92145
C         20.74739        40.38080         2.25244
C         19.51274        39.68810         2.15625
C         20.80411        41.85651         2.67459
C         19.51962        42.55571         2.26651
C         20.74670        44.65654         1.81022
C         19.49422        43.81466         1.78418
C         20.68677        45.79947         0.81996
C         19.41852        46.56473         0.75417
C         20.68328        48.55679        -0.01235
C         19.44460        47.92560         0.31112
C         20.70666        50.02566        -0.36520
C         19.40231        50.52252        -0.91792
C         20.49183        52.21270        -2.45477
C         19.39316        51.95382        -1.38793
C         20.64384        53.71147        -2.72628
C         19.29105        54.21389        -3.20961
C         20.54384        55.84789        -4.72663
C         19.24078        55.48716        -4.02747
C         20.56163        56.90362        -5.60290
C         23.27802         3.92006        -3.98434
C         22.08312         4.54012        -3.92050
C         23.10571         6.35859        -2.48546
C         22.01001         5.98835        -3.50650
C         23.14315         7.86632        -2.32847
C         21.91667         8.55997        -2.34100
C         23.12839        10.67723        -1.94839
C         21.90067         9.97636        -2.12777
C         23.11360        12.08604        -1.73199
C         21.87858        12.78092        -1.70689
C         23.11776        14.92673        -1.31932
C         21.85744        14.21529        -1.48386
C         23.13463        16.27179        -0.92328
C         21.91523        17.02487        -0.81413
C         23.13739        18.95202         0.25135
C         21.88535        18.29891        -0.29227
C         23.13319        20.44544         0.01410
C         21.84861        21.22036         0.08655
C         23.13071        23.26914         0.73263
C         21.88859        22.62066         0.51443
C         23.13873        24.64506         1.14081
C         21.89637        25.32734         1.33703
C         23.08783        27.46120         1.67983
C         21.91568        26.77755         1.56396
C         23.07903        28.95212         1.94902
C         21.87941        29.66867         1.33188
C         23.17415        31.84447         1.30521
C         21.92099        31.12251         1.18466
C         23.21267        33.23026         1.20679
C         21.99776        34.01297         0.77799
C         23.20438        36.13226         1.30506
C         21.98468        35.45232         1.22295
C         23.23591        37.53507         1.60296
C         22.01465        38.21353         1.80263
C         23.34448        40.34703         2.39144
C         22.00515        39.61760         2.28159
C         23.37500        41.88660         2.53724
C         22.05936        42.55579         2.15880
C         23.24256        44.59937         1.40706
C         22.03234        43.85577         1.72111
C         23.24627        45.92693         1.00882
C         21.97188        46.51269         0.54079
C         23.16525        48.58789        -0.11000
C         21.91808        47.92307         0.14029
C         23.18486        49.78654        -0.86769
C         21.86854        50.31419        -1.29114
C         23.06421        52.08803        -2.69330
C         21.80469        51.47777        -2.21868
C         23.04006        53.24717        -3.42462
C         21.81108        54.00294        -3.64329
C         23.03801        55.74310        -4.89488
C         21.76817        55.12470        -4.44532
C         23.01535        56.81364        -5.89723
C         21.77042        57.37407        -6.25652
C         22.93368        58.85508        -7.79807
C         21.74333        58.40870        -7.21454
C         24.49272         4.58103        -3.52824
C         25.67855         6.34766        -2.21394
C         24.44572         5.74716        -2.84179
C         25.64148         7.86048        -2.16711
C         24.37334         8.55864        -2.15740
C         25.60806        10.69671        -1.88872
C         24.37241         9.97221        -1.99714
C         25.61035        12.09948        -1.74622
C         24.35710        12.81571        -1.64242
C         25.60516        14.98830        -1.68968
C         24.34375        14.20043        -1.47321
C         25.64673        16.29521        -0.95536
C         24.40373        16.84136        -0.33337
C         25.57993        19.08469        -0.32916
C         24.41382        18.33690        -0.24686
C         25.57586        20.49313        -0.01547
C         24.38462        21.18060         0.28690
C         25.66760        23.18434         0.99685
C         24.36296        22.55179         0.58764
C         25.60941        24.68779         1.09725
C         24.39157        25.32457         1.31573
C         25.65473        27.48057         1.67861
C         24.37859        26.70778         1.91734
C         25.61129        28.91659         1.72303
C         24.41154        29.60332         1.61742
C         25.75318        31.77775         1.34290
C         24.41877        31.03541         1.29004
C         25.69237        33.25555         1.50989
C         24.43813        33.98870         1.23102
C         25.68143        36.15268         0.82318
C         24.44096        35.37110         1.18352
C         25.72145        37.55183         1.40286
C         24.52635        38.23246         1.67324
C         25.77788        40.35026         1.79906
C         24.56979        39.64674         1.93649
C         25.79371        41.81351         1.81625
C         24.57957        42.50599         1.89470
C         25.73382        44.72411         1.69072
C         24.54458        43.87313         1.27908
C         25.75058        46.13286         1.21510
C         24.46615        46.70218         0.84835
C         25.61241        48.81983         0.13473
C         24.40147        47.98828         0.28951
C         25.61527        49.88485        -0.88440
C         24.37375        50.31447        -1.40143
C         25.59045        52.06011        -2.75002
C         24.32561        51.24332        -2.59906
C         25.57431        53.15353        -3.60183
C         24.27586        53.59418        -4.21977
C         25.56384        55.51330        -5.32182
C         24.32951        55.03837        -4.64661
C         25.48031        56.61091        -6.17584
C         24.22735        57.24086        -6.50267
C         24.15903        58.28664        -7.45636
C         26.82253         8.55227        -2.06780
C         28.07081        10.66981        -1.83418
C         26.85968         9.98309        -1.93744
C         28.10908        12.08555        -1.68612
C         26.85833        12.80696        -1.65115
C         28.09512        14.91778        -1.39455
C         26.87833        14.20627        -1.52040
C         28.09009        16.33421        -1.20157
C         26.83443        17.00654        -0.92660
C         28.03534        19.13782        -0.76960
C         26.84358        18.42650        -0.64950
C         27.99789        20.61280        -0.81815
C         26.74272        21.31990        -0.35919
C         28.01026        23.41128         0.15765
C         26.83940        22.68453         0.18257
C         28.05447        24.69964         0.82501
C         26.87289        25.37987         1.17976
C         28.11714        27.55216         1.44164
C         26.86927        26.80747         1.48674
C         28.16765        28.92195         1.63785
C         26.90630        29.63281         2.06180
C         28.19512        31.84251         2.13261
C         26.95239        31.08652         1.75659
C         28.26481        33.16503         1.35125
C         26.98747        33.97475         1.51166
C         28.28562        36.09249         1.23407
C         26.99861        35.38032         1.00870
C         28.21923        37.54655         1.40391
C         26.99310        38.22516         1.46962
C         28.23669        40.37477         1.48761
C         27.01102        39.66316         1.61167
C         28.20054        41.81165         1.05622
C         26.99569        42.51971         1.59127
C         28.32304        44.70533         1.63324
C         27.03873        43.96294         1.82545
C         28.26288        46.17988         1.25458
C         26.94382        46.81230         1.02276
C         28.18999        48.78730        -0.04911
C         26.96321        48.20775         0.53894
C         28.11342        49.95647        -0.82569
C         26.84627        50.47696        -1.29304
C         28.04004        52.21186        -2.61125
C         26.82141        51.57835        -2.20393
C         28.01423        53.29245        -3.50149
C         26.79270        53.80701        -4.00715
C         26.77233        54.89079        -4.92595
C         29.32171        12.79433        -1.59220
C         30.55610        14.93534        -1.35343
C         29.34947        14.20387        -1.44324
C         30.56303        16.34165        -1.20377
C         29.30574        17.05371        -1.11342
C         30.51962        19.21040        -0.89803
C         29.29300        18.47025        -0.94205
C         30.54367        20.62540        -0.79044
C         29.27620        21.39073        -0.85381
C         30.56134        23.63004        -0.37423
C         29.24624        22.85913        -0.48339
C         30.65878        24.55297         0.85189
C         29.36187        25.30894         1.14356
C         30.63897        27.54374         1.22013
C         29.38380        26.79191         1.38794
C         30.63791        28.91068         1.43222
C         29.42174        29.65277         1.68543
C         30.69757        31.79162         1.93116
C         29.46953        31.04573         1.88293
C         30.73557        33.19782         1.84204
C         29.51045        33.95980         1.68932
C         30.77665        36.10209         1.44444
C         29.49975        35.33116         1.63628
C         30.73148        37.52903         1.95788
C         29.44157        38.26472         1.78994
C         30.71361        40.38542         1.35445
C         29.47834        39.71928         1.55203
C         30.75249        41.78803         1.14362
C         29.51249        42.54446         1.22089
C         30.73040        44.65133         0.86671
C         29.52359        43.91744         1.27751
C         30.76268        46.14574         0.95939
C         29.47674        46.84170         0.72505
C         30.70701        48.75734        -0.21011
C         29.45387        48.11691         0.18386
C         30.66268        50.18787        -0.69803
C         29.32841        50.61268        -1.26483
C         29.28296        51.69494        -2.10413
C         31.76495        17.07644        -1.09071
C         32.98297        19.19408        -0.79303
C         31.76917        18.48035        -0.93230
C         33.00267        20.58654        -0.61291
C         31.76190        21.32665        -0.62037
C         33.03205        23.40089        -0.29636
C         31.80763        22.74166        -0.42515
C         32.99585        24.84101        -0.02571
C         31.85170        25.46688         0.60132
C         33.02810        27.65320         0.56326
C         31.84140        26.83968         0.82514
C         33.12461        28.93431         1.03146
C         31.94039        29.58087         1.63491
C         33.30654        31.76278         2.08998
C         31.96817        31.02655         2.04320
C         33.19959        33.21842         1.73290
C         32.01047        33.91299         1.75911
C         33.21450        36.08547         1.90812
C         32.04511        35.36889         1.76376
C         33.19730        37.55032         2.36229
C         31.98949        38.26314         1.83530
C         33.27266        40.37619         1.41174
C         32.00112        39.59522         1.16898
C         33.24319        41.77835         1.13451
C         32.00626        42.45280         0.99272
C         33.30009        44.64095         0.62102
C         32.01614        43.89057         0.66687
C         33.28072        46.00332         0.38926
C         32.05279        46.81577         0.55186
C         31.91585        48.14284        -0.06754
C         34.23244        21.28368        -0.43856
C         35.58853        23.30477        -0.10467
C         34.28856        22.66955        -0.32517
C         35.86655        24.57852        -0.54342
C         33.99186        25.65063        -0.52253
C         35.56446        27.68429        -0.13300
C         34.14892        27.06181        -0.20422
C         35.63099        29.02709         0.50017
C         34.34789        29.72421         0.75935
C         35.72438        31.79580         1.38308
C         34.40018        31.13970         1.22103
C         35.72788        33.15656         1.57925
C         34.46019        33.90920         1.47217
C         35.80084        36.07567         1.87992
C         34.49307        35.41573         1.66659
C         35.81799        37.55200         1.99950
C         34.51784        38.30679         2.13488
C         35.72119        40.43035         1.50182
C         34.47969        39.72229         1.66702
C         35.70707        41.77151         1.17198
C         34.48714        42.50646         1.02012
C         34.50223        43.88220         0.74885
C         36.93531        25.48341        -0.21115
C         38.03928        27.62974         0.00089
C         36.83099        26.87659        -0.15934
C         38.07192        28.99285         0.29168
C         36.84277        29.68457         0.65012
C         38.16417        31.73312         1.10697
C         36.93517        31.06365         1.11069
C         38.27540        33.11370         1.62274
C         36.97513        33.88963         1.79563
C         38.22819        36.06601         1.45056
C         36.97179        35.37601         1.73907
C         38.17753        37.52276         1.31604
C         37.05249        38.24266         1.56521
C         37.06684        39.75183         1.70602
C         39.28167        29.75433         0.19799
C         40.48296        31.92730         0.22449
C         39.32221        31.09948         0.52697
C         40.56403        33.23057         0.56149
C         39.58846        33.89410         1.50219
C         39.38129        35.36959         1.20882
O         18.62543        29.11884        -0.37771
O         27.04600        21.13430        -1.79381
O         19.29467        13.16303        -3.63983
O         25.19050        31.31255         0.05410
O         34.46525        34.79611         0.30318
O         22.53205        20.88669        -1.22156
O         11.28804        26.16553         1.78418
O         29.92358        37.80463         3.14972
O         35.38717        38.11238         3.31180
O         19.11843        16.37080         0.56632
O         17.04858        22.24308        -1.16462
O         26.26359        44.42917         2.99242
O         21.33036        45.58471        -0.45982
O         34.72136        27.80277        -1.32859
O         29.15881        22.43275        -1.88615
O         21.64517        50.07620        -2.71259
O         15.50282        41.17258         3.82209
O         34.90726        25.13314        -1.43161
O         37.70830        33.32403         2.95575
O         10.10459        34.13582        -0.73177
O         23.86747        56.01614        -3.66699
O         10.33795        29.58745        -1.52333
O         26.29551        33.76219         2.76686
O         26.25733        49.16003         1.40429
O         27.86452        35.56822        -0.15561
O         31.59800        46.75175         1.98446
O         16.18084        37.41217         3.25832
O         16.29024        29.22044         2.65864
O         31.15140        44.21483        -0.48796
O         28.52870        45.72585         2.64544
O         22.75439        39.73254         3.57338
O         29.42516        25.81911         2.53053
O         24.05996        52.74436        -5.47045
O         32.00265        29.97934         3.07942
O         34.04806        30.87190        -0.16447
O         20.76467        45.30115         3.11857
H         20.85965        44.59858         3.79831
O         13.69449        32.14381        -1.34933
H         13.50262        31.30855        -1.82399
O         23.55898        42.16142         3.95213
H         22.85221        41.65318         4.42249
O         19.32311        25.35077         3.08640
H         19.42802        24.43038         3.40955
O         22.19470         6.77682        -4.71256
H         22.98822         6.43522        -5.17547
O         14.22477        25.52677        -0.98055
H         15.07754        25.82260        -1.36244
O         38.05783        40.33405         0.85820
H         37.79823        40.18259        -0.07333
O         22.11377        34.08191        -0.69888
H         21.97535        33.17391        -1.04630
O         25.11934        53.03633        -6.40591
H         25.83134        52.39742        -6.15596
O         16.55129        16.56090         1.12484
H         17.39905        16.71210         1.60655
O         20.63682        16.72494        -2.81580
H         20.44081        15.90374        -3.33237
O         28.01019        41.77035        -0.41568
H         28.77981        41.29630        -0.79752
O         16.66539        13.82706         0.45013
H         16.53439        14.71526         0.87424
O         18.16039        55.44922        -4.96541
H         18.29623        54.67808        -5.55343
O         15.75059        45.09518         3.51306
H         15.85862        44.27205         4.03714
O         32.98558        37.47230         3.80710
H         33.87125        37.56360         4.23294
O         33.80268        31.72761         3.45279
H         33.33050        30.99158         3.91034
O         20.35938        18.59473         1.50711
H         21.23971        18.62753         1.96008
O         16.92373        31.61783         2.91932
H         16.32054        30.97200         3.35851
O         22.69759         5.78844        -1.20772
H         23.38223         6.00852        -0.54244
O         40.23870        33.85587         2.80722
H         39.51213        33.86750         3.47382
O         19.96837        51.69184        -3.70190
H         20.20596        50.73501        -3.73226
O          9.91192        38.16213         3.71612
H          9.82078        37.22653         3.99833
O         25.51654        36.38014        -0.61255
H         26.42383        36.37924        -1.00310
O         20.89883        41.89017         4.12853
H         19.97326        41.74916         4.46861
O         13.47309        32.93430         2.21709
H         13.01847        33.64402         2.73498
O         25.93058        22.71232         2.38452
H         25.16513        22.98925         2.93229
O         15.77617        49.64342         1.81688
H         16.61362        50.17528         1.80126
O         31.72000        50.44811        -1.62629
H         31.56599        49.90668        -2.42714
O         30.84091        36.30606        -0.01229
H         30.96177        35.43163        -0.44006
O         19.53353        31.39897        -0.89575
H         18.96382        30.70913        -1.31037
O         16.57178        25.18217         2.85036
H         17.34833        25.57381         3.31487
O         13.03061        27.81922         2.60577
H         12.46492        27.08194         2.93418
O         25.55764        15.35249        -3.13034
H         26.35471        15.89393        -3.31838
O         30.59454        24.52651        -1.50967
H         30.29138        24.00539        -2.28887
O         11.91953        35.03187         2.66367
H         12.06762        35.85478         3.18021
O         17.29970        39.46102         4.21319
H         16.68148        38.76274         4.53376
O         13.18210        24.38480         2.33392
H         12.48239        24.92019         2.77039
O         28.17447        32.13730         3.55175
H         27.82997        31.33380         4.00686
O         21.01332        54.42726        -1.50329
H         21.35650        55.31133        -1.75491
O         24.30835        50.36135        -3.77159
H         24.09760        50.92508        -4.55378
O         21.00512        50.74546         0.87407
H         20.16583        50.77186         1.39341
O         26.87139         5.88030        -2.84445
H         26.88477         6.21450        -3.76421
O         22.95170        29.11604         3.39520
H         23.40418        28.34918         3.81483
O         24.38006        26.49207         3.39572
H         25.18388        25.96867         3.60775
O         20.36041        14.06974        -3.99565
H         21.11037        13.46777        -4.22591
O         24.40528        16.36635         1.10048
H         25.32545        16.46404         1.43016
O         24.73735        43.66911        -0.17068
H         23.87334        43.42496        -0.56587
O         18.13526        43.95560        -0.16231
H         18.22597        42.97921        -0.15839
O         23.10644        18.74374         1.71216
H         23.43338        17.81524         1.84856
O         26.95842        29.55892         3.56328
H         27.11453        28.61806         3.79957
O         11.46603        27.24458        -1.59475
H         11.01637        27.82510        -2.25024
O         18.20499        50.84325         1.13558
H         18.41166        51.78615         0.90103
O         14.57275        34.36366        -1.00378
H         15.39133        34.84979        -1.23425
O         19.54214        52.75935        -0.17533
H         19.97011        53.62103        -0.40395
O         20.34413        27.78897         3.08687
H         20.15609        26.91954         3.51239
O         19.65144        26.61280        -0.34242
H         19.41975        27.47585        -0.76504
O         12.17323        46.62229         0.74186
H         11.31589        46.45506         1.18054
O         28.38172        32.81487        -0.04767
H         28.34354        33.65762        -0.55951
O         32.04042        39.32118        -0.30010
H         32.05255        40.19229        -0.75301
O         30.93006        23.72121         1.99902
H         30.69590        24.25534         2.79244
O         19.50379        18.99810        -2.04674
H         20.04452        18.38003        -2.59728
O         14.86264        38.65978         0.04393
H         14.04764        39.04613        -0.34242
O         19.62313         6.10764        -3.88106
H         19.91302         6.49448        -4.73496
O         18.25633        41.90584         4.14158
H         17.68214        41.16190         4.47067
H          5.13376        31.17687         1.19061
H          5.04654        33.52813         1.94358
H          7.39965        27.20534        -0.02255
H          6.26511        29.28946         0.48211
H          6.18735        35.72066         2.21272
H          7.41851        37.90614         2.60227
H          9.86061        22.91195        -0.75800
H          8.55103        25.02159        -0.39068
H          8.61573        40.19366         1.79756
H          9.87450        42.31702         1.49950
H         12.29288        18.64932        -1.13833
H         11.05572        20.79383        -0.89814
H         11.10846        44.41502         1.34126
H         13.03225        46.46556         2.63231
H         14.84597        14.45918        -1.88315
H         13.60055        16.58235        -1.64614
H         13.54172        48.53564         0.53987
H         14.79603        50.17151        -1.00226
H         17.26469        10.07059        -2.25649
H         16.03787        12.05398        -1.49854
H         15.99146        51.97131        -2.24001
H         17.18606        53.95756        -3.25955
H         20.43828         5.80500        -2.00841
H         18.54024         8.03176        -2.79578
H         19.00751        56.33656        -3.32104
H         19.61730        57.42134        -5.82945
H         23.35977         2.89071        -4.36264
H         21.16434         4.05100        -4.27638
H         22.90078        59.66486        -8.54050
H         20.78428        58.86567        -7.49671
H         25.46274         4.09365        -3.70837
H         25.72281         5.98100        -1.14598
H         26.39552        56.99486        -6.65171
H         25.08334        58.64347        -7.93288
H         27.77161         7.99533        -2.07857
H         29.01653        10.10858        -1.86945
H         28.96148        53.75654        -3.81391
H         27.72981        55.29284        -5.29044
H         30.27205        12.24141        -1.63720
H         31.51518        14.39823        -1.40354
H         30.86473        50.84359         0.19644
H         30.22287        52.18399        -2.40071
H         32.72582        16.54080        -1.11586
H         33.93408        18.64138        -0.81843
H         34.23043        46.53898         0.23534
H         32.81898        48.65381        -0.43641
H         35.16656        20.70246        -0.43170
H         36.35010        22.73796         0.45181
H         36.66395        42.29759         1.03756
H         35.46867        44.40234         0.67273
H         37.92111        25.04955         0.02220
H         38.99189        27.10576        -0.17104
H         39.10910        38.05017         1.05956
H         37.38991        39.96910         2.76300
H         40.18377        29.26384        -0.19693
H         41.28530        31.46667        -0.37227
H         41.44867        33.81588         0.26812
H         40.28652        35.93720         0.93992
