         276
 CSIRO Nanostructure Databank - Neutral Graphene Oxide Data Set
C        -11.19811         0.56861         0.07015
C         -9.99718         1.44099         0.15429
C         -8.65920         0.70701         0.10035
C         -7.43509         1.46249        -0.43260
C         -6.12045         0.68125        -0.41680
C         -4.95389         1.46474         0.16906
C         -3.63438         0.73096         0.16742
C         -2.52556         1.55836         0.84461
C         -1.18229         0.85081         0.75218
C         -0.02300         1.56089         1.41737
C          1.26743         0.84267         1.39930
C          2.44725         1.49221         0.74144
C          3.69509         0.65320         0.57530
C          4.92826         1.37905        -0.01762
C          6.23112         0.76197         0.38337
C          7.49158         1.47740        -0.05158
C          8.72356         0.74342         0.48055
C         10.00757         1.50812         0.27167
C         11.21207         0.68068         0.35161
C        -10.09621         2.85550        -0.30450
C         -9.13911         3.81325        -0.00970
C         -7.18250         2.82614         0.22070
C         -6.12354         3.57390        -0.27168
C         -4.98816         2.77974        -0.62405
C         -3.43339         3.98011         0.82715
C         -2.41275         3.01821         0.35172
C         -1.43971         3.49354        -0.49604
C          0.10394         3.08082         1.41809
C          1.20904         3.67758         0.57538
C          2.35835         2.95624         0.39435
C          3.61622         3.58424        -0.19687
C          4.88307         2.90773         0.35847
C          6.19058         3.60085        -0.21874
C          7.45257         2.94456         0.39906
C          8.75229         3.66440         0.08649
C          9.98471         2.87281         0.13938
C         -8.86401         5.11308        -0.50805
C         -7.57123         5.77294        -0.47368
C         -6.20841         5.05594        -0.59838
C         -5.05815         5.87910         0.18552
C         -3.74768         5.11280         0.06424
C         -2.61810         5.67248        -0.72649
C         -1.34422         4.93726        -0.80406
C         -0.00466         5.66776        -0.77314
C          1.05040         5.18460         0.25683
C          2.40836         5.85619         0.11688
C          3.67237         5.06924         0.16859
C          4.98508         5.78383        -0.00109
C          6.15425         5.11651         0.03100
C          7.48577         5.82425        -0.38315
C          8.73978         5.01703        -0.06985
C         -7.53154         7.14947        -0.57623
C         -6.28827         7.92052        -0.96369
C         -5.01669         7.19390        -0.56609
C         -3.86867         7.69295        -1.05306
C         -2.54845         7.16126        -0.69412
C         -1.28426         7.94210        -0.79514
C          0.00761         7.17118        -0.97306
C          1.28194         8.04978        -0.91688
C          2.55923         7.20868        -0.58045
C          3.66390         8.01110         0.08365
C          4.94432         7.26705         0.19071
C          6.25604         8.06474        -0.23853
C          7.33836         7.17024         0.24430
C         -6.21038         9.36357        -0.44505
C         -5.12194        10.17794        -0.40960
C         -3.79038         9.84002        -0.94092
C         -2.54486        10.17376        -0.51773
C         -1.25550         9.48668        -1.00438
C         -0.04491        10.03556        -0.24922
C          1.15921         9.38946        -0.20268
C          2.40346        10.09763         0.10531
C          3.63157         9.48737         0.08576
C          4.91771        10.12313         0.36498
C          6.10563         9.46904         0.32240
C        -11.15542        -0.78218         0.18497
C         -9.91614        -1.54709         0.26228
C         -8.67391        -0.79039        -0.07456
C         -7.36991        -1.53061        -0.16617
C         -6.07406        -0.78567        -0.26992
C         -4.84569        -1.43261         0.35891
C         -3.58663        -0.63125         0.08974
C         -2.29027        -1.33559        -0.30644
C         -1.08681        -0.58097         0.28716
C          0.16717        -1.36566         0.54493
C          1.23997        -0.66047         1.32470
C          2.50190        -1.39650         1.53334
C          3.86163        -0.65017         1.48389
C          5.13503        -1.50705         1.02811
C          6.30684        -0.69640         0.53271
C          7.41787        -1.30565        -0.29182
C          8.73873        -0.59954        -0.22759
C         10.00864        -1.38827        -0.32316
C         11.21087        -0.67247         0.18462
C         -9.87835        -2.90947         0.37317
C         -8.59764        -3.64538         0.57276
C         -7.30760        -2.90995         0.42000
C         -5.98254        -3.70143         0.38191
C         -4.80558        -2.87470        -0.12776
C         -3.51679        -3.56955        -0.45502
C         -2.24165        -2.85647        -0.13558
C         -1.07834        -3.54938         0.04745
C          0.22535        -2.84637         0.29705
C          1.38852        -3.60316         0.87912
C          2.39001        -2.87045         1.43543
C          4.29941        -3.89120         1.20612
C          5.13909        -2.95742         0.61894
C          6.11911        -3.49987        -0.36090
C          7.39395        -2.75630        -0.64312
C          8.68904        -3.49415        -0.70695
C          9.87624        -2.86095        -0.48544
C         -8.51591        -5.12671         0.46312
C         -7.39859        -5.79506         0.07715
C         -6.13709        -5.06357        -0.27503
C         -4.86195        -5.77601        -0.64678
C         -3.47648        -5.08000        -0.74393
C         -2.35506        -5.79330        -0.00876
C         -1.04772        -5.04566        -0.00144
C          0.24512        -5.78588         0.25226
C          1.60716        -5.04927         0.39700
C          2.72855        -5.85866         1.18304
C          4.07607        -5.22999         0.81170
C          4.99940        -5.81451        -0.08223
C          6.08131        -4.96355        -0.65773
C          7.32075        -5.67637        -1.09097
C          8.68789        -4.99688        -1.00786
C         -7.47628        -7.30012        -0.15735
C         -6.14387        -8.01367        -0.36195
C         -4.85712        -7.28671        -0.59635
C         -3.53742        -8.02306        -0.31825
C         -2.38172        -7.14033         0.13524
C         -1.19541        -7.88615         0.66067
C          0.13466        -7.20728         0.75928
C          1.38237        -8.05721         0.71469
C          2.70930        -7.36319         0.80798
C          3.87372        -8.00338         0.07830
C          4.91191        -7.13081        -0.49573
C          5.77209        -7.53353        -1.67348
C          7.17145        -6.94959        -1.52010
C         -6.08400        -9.42002         0.13093
C         -4.94890        -9.96001         0.58925
C         -3.68951        -9.14233         0.75302
C         -2.43637        -9.98364         0.66684
C         -1.23746        -9.37671         0.56842
C          0.01865       -10.19909         0.34830
C          1.28088        -9.39872         0.07070
C          2.35173        -9.98686        -0.51033
C          3.69193        -9.35789        -0.56003
C          4.68130        -9.78403        -1.58900
C          5.69654        -9.00527        -1.99353
O          0.25809         6.21702        -2.07642
O         -0.51649         3.73411         2.23427
O         -5.76191        -5.22616        -1.66519
O          6.18859         3.52983        -1.61311
O         -5.59279        -7.88088        -1.71832
O          3.41820        -3.43909         2.18554
O          7.11179        -1.71520        -1.64447
O          2.19822        -8.13639         1.93541
O         -3.87440         8.80754        -1.91925
O          4.27436         7.61506         1.39635
O         -5.85589        -0.14088        -1.57249
O         -7.89933        -3.03575         1.75398
O         -3.10597        -5.19682        -2.13365
O         -0.76619         0.52885        -0.61040
O          5.52998        -4.00190        -1.63003
O         -2.18040         5.13941        -2.03085
O          0.64670         1.20577         2.67297
O          9.45134        -0.63219        -1.47430
O          0.65304        -1.90259        -0.74123
O          2.67337         0.60170        -0.44404
O         -8.17673        -1.31592        -1.36161
O         -8.14427         3.42822         0.94893
O          3.06907         5.56029         1.39843
O         -2.93423         1.51416         2.19587
O         -9.19042         1.15830         1.35964
O          4.36135        -9.21186         0.75159
O          1.41749         8.56071        -2.24047
O          6.27871        -1.23147         1.91181
O         -4.37145        -2.95120        -1.49456
O          1.60699        -1.11313         2.68207
O         -1.89843         7.66207         0.52092
O         -0.68441        -7.36976         1.95121
O          7.35273         2.97234         1.85092
H          7.85778         2.19630         2.20523
O          3.11957         6.83527        -1.86567
H          2.64068         7.41131        -2.53084
O         -5.05673        -1.39571         1.78891
H         -4.99573        -2.31060         2.15475
O          4.76089         3.03276         1.76749
H          5.65386         2.91069         2.18191
O         -5.47895         6.07760         1.53052
H         -5.13485         5.33159         2.07391
O         -6.34144         7.93141        -2.43080
H         -5.53977         8.43172        -2.72665
O         -4.06498         3.76793         1.98562
H         -3.63437         2.95024         2.40941
O         -7.71151         1.76918        -1.82332
H         -7.39913         0.99410        -2.34964
O          6.19676         8.18525        -1.64949
H          6.54465         7.34718        -2.05366
O          9.50224        -5.68727        -0.04734
H          9.04439        -5.68215         0.81779
O          8.55491         0.53849         1.90938
H          9.39675         0.19692         2.27819
O          0.50384         5.81515         1.44253
H          1.11826         5.63770         2.18926
O         -0.21147       -11.16822        -0.67666
H         -0.61844       -10.71691        -1.44482
O         -0.23182        -5.60832        -1.11438
H         -3.70898        -4.60383        -2.63676
O          5.17375        -6.88171        -2.84077
H          5.19120        -5.90816        -2.69993
O          4.87820         1.22982        -1.44493
H          3.92798         1.28615        -1.71247
O         -1.03536         9.76416        -2.39365
H         -0.13153         9.38812        -2.60907
O         -0.54127         2.74876        -1.18369
H         -0.07600         3.30736        -1.83961
O         -5.41147         1.68994         1.51366
H         -4.62760         1.46267         2.10980
O         -5.61202        -4.01814         1.75680
H         -6.44743        -3.94828         2.29020
O         -2.22564        -1.19418        -1.74692
H         -1.70787        -0.37691        -1.93726
O         -5.85013         5.10279        -2.00857
H         -6.05207         6.01175        -2.35912
O          2.47664        -5.73207         2.57569
H          2.23707        -6.62738         2.91953
O         -3.11130        -8.64209        -1.54833
H         -3.86829        -8.58557        -2.17768
O         -8.12377        -7.94092         0.94133
H         -9.01356        -7.55425         1.06458
O          4.13932        -0.17490         2.79641
H          3.32375        -0.27313         3.33983
O         -3.76232        -8.45864         2.02868
H         -3.67533        -9.12134         2.74455
O          3.54721         3.48952        -1.62222
H          4.49447         3.55367        -1.95365
O          7.40503         5.84271        -1.81878
H          7.02918         4.93752        -2.07121
O         -4.29040         2.93230        -1.72071
H         -4.58748         3.76657        -2.18001
O          7.56935         1.37704        -1.47426
H          6.91152         2.02524        -1.86539
O          2.15899        -4.92797        -0.92501
H          1.41910        -4.70457        -1.53907
H         12.14881        -1.23546         0.30700
H         12.16250         1.18528         0.58728
H         10.93550         3.41480         0.00711
H          9.69393         5.54523        -0.22978
H          7.55528         7.21110         1.32653
H          7.02882        10.01479         0.56946
H          4.90515        11.18230         0.66742
H          2.33876        11.18663         0.26159
H         -0.11005        11.06744         0.13522
H         -2.43940        10.94102         0.26486
H         -5.23269        11.16012         0.07939
H         -7.13911         9.76010        -0.00080
H         -8.48071         7.70885        -0.54427
H         -9.69485         5.68662        -0.94967
H        -10.88798         3.08982        -1.02965
H        -12.17431         1.06403        -0.04272
H        -12.09769        -1.35099         0.18499
H        -10.81571        -3.47724         0.47800
H         -9.44700        -5.68936         0.64483
H         -8.09428        -7.45912        -1.09091
H         -7.00783       -10.01469         0.07543
H         -4.93385       -11.00797         0.92887
H         -2.51448       -11.07925         0.58693
H          0.22288       -10.77712         1.29296
H          2.23388       -10.99322        -0.94329
H          4.61020       -10.82369        -1.94607
H          6.42399        -9.39410        -2.72229
H          8.04267        -7.53793        -1.84739
H          9.19679        -5.13653        -1.99797
H         10.79844        -3.46412        -0.48088
