         234
 CSIRO Nanostructure Databank - Neutral Graphene Oxide Data Set
C          1.67609         2.68608        -3.06314
C          1.48536         3.57295        -1.98245
C          2.90613         2.20226        -3.50608
C          2.50185         4.22550        -1.25266
C          1.18503         6.55963         0.69756
C          1.18166         7.92303         0.94969
C          2.37937         5.92230         0.34773
C          2.38533         8.64982         0.92364
C          1.15430        10.80674         0.96474
C          1.12464        12.18983         1.05953
C          2.36657        10.09330         1.06697
C          2.31116        12.90255         1.28661
C          1.08461        15.13715         1.08484
C          1.13534        16.26755         0.35178
C          2.31897        14.40487         1.54015
C          2.38564        16.78018        -0.19004
C          2.38753        17.90553        -1.09329
C          4.12145         2.82999        -3.11236
C          3.80182         4.47933        -1.68461
C          5.31687         2.24478        -2.73004
C          4.93401         4.86413        -0.88341
C          3.62675         6.59811         0.34474
C          3.62449         7.97492         0.72584
C          4.89465         5.95393         0.01181
C          4.86683         8.68666         0.92002
C          3.58491        10.79638         1.25318
C          3.52847        12.20699         1.38783
C          4.84964        10.07607         1.25264
C          4.76064        12.96092         1.72938
C          3.59806        14.98749         0.97624
C          3.57791        16.15212         0.13553
C          4.78905        14.37849         1.30060
C          4.81218        16.41454        -0.68885
C          3.54859        18.38820        -1.63441
C          4.81677        17.75706        -1.37709
C          6.35023         2.89823        -1.97411
C          6.15253         4.03811        -1.01939
C          7.59170         2.27347        -1.99598
C          7.40916         4.59467        -0.30366
C          6.12646         6.60526         0.40936
C          6.10430         7.98298         0.83788
C          7.37311         5.96425         0.23153
C          7.33627         8.66572         1.09489
C          6.07451        10.75153         1.49371
C          6.05146        12.19237         1.86419
C          7.31004        10.06519         1.39739
C          7.34584        12.96761         1.83571
C          6.05219        15.22518         1.25054
C          6.10550        16.08532         0.00562
C          7.34738        14.45288         1.51582
C          7.28542        16.59248        -0.49584
C          6.00338        18.25693        -1.85030
C          7.26757        17.65316        -1.50487
C          8.77286         2.79359        -1.39010
C          8.71543         4.01885        -0.63961
C         10.00518         2.18369        -1.65829
C          9.86979         4.60657        -0.12254
C          8.60494         6.60555         0.58217
C          8.58657         7.96070         1.03327
C          9.84907         5.89104         0.50110
C          9.81483         8.61683         1.40023
C          8.56981        10.76908         1.58296
C          8.58841        12.17327         1.71721
C          9.78263        10.00338         1.66637
C          9.85158        12.90436         1.71877
C          8.63160        15.24993         1.20473
C          8.56742        16.11472        -0.03247
C          9.89314        14.38466         1.28800
C          9.74543        16.59343        -0.58297
C          8.45311        18.17507        -1.98305
C          9.72815        17.67305        -1.55791
C         11.21310         2.66411        -1.08409
C         11.10387         3.79551        -0.12598
C         12.43174         2.12468        -1.45179
C         12.35829         4.42116         0.42590
C         11.07627         6.51189         0.94948
C         11.06577         7.86453         1.41300
C         12.33066         5.84559         0.84064
C         12.29834         8.45096         1.82993
C         11.03728        10.69587         2.04856
C         11.11552        12.13313         1.65447
C         12.29584         9.88690         2.18514
C         12.28650        12.76015         1.37502
C         11.07478        14.84659         0.55622
C         11.02264        15.98657        -0.24427
C         12.32164        14.00140         0.48524
C         12.23707        16.59529        -0.73414
C         10.91453        18.25477        -1.98580
C         12.19149        17.78637        -1.52509
C         13.70339         2.58662        -0.89648
C         13.65927         3.79233         0.03906
C         14.97149         2.24872        -1.57577
C         14.85533         4.63071         0.16220
C         13.55260         6.47617         1.18922
C         13.54717         7.78228         1.76443
C         14.81225         5.82281         0.85237
C         14.82691         8.40244         2.31278
C         13.59939        10.58463         1.95292
C         13.56203        12.03401         1.60469
C         14.86757         9.94925         2.47039
C         14.74888        12.77084         2.14869
C         13.56634        14.89400         0.58647
C         13.49150        16.12297        -0.28608
C         14.88437        14.19635         0.26720
C         14.67837        16.83476        -0.48086
C         13.39771        18.42652        -1.85405
C         14.64988        17.96104        -1.37135
C         16.13849         2.91736        -1.29764
C         16.09598         4.16599        -0.49533
C         17.42217         2.46121        -1.76399
C         17.39061         4.73797        -0.02604
C         16.06793         6.31870         1.47126
C         16.10062         7.61577         2.17657
C         17.36058         5.60140         1.18974
C         17.33354         8.00768         2.67858
C         16.11967        10.79906         2.38725
C         16.07989        12.14202         1.89253
C         17.36054        10.30363         2.81534
C         17.23790        12.95578         1.72983
C         16.02636        14.92105         0.56556
C         15.96454        16.34386         0.09602
C         17.30802        14.30437         1.03475
C         17.22937        16.80215        -0.63381
C         15.86312        18.46055        -1.91709
C         17.09328        17.80867        -1.71815
C         18.62752         3.04214        -1.38075
C         18.66522         4.14874        -0.46988
C         19.91601         2.50230        -1.81257
C         19.85207         4.82667        -0.16179
C         18.71353         6.06589         1.73249
C         18.61997         7.45843         2.31094
C         19.88302         5.86596         0.79610
C         19.83130         8.12166         2.51789
C         18.55191        11.05388         2.64971
C         18.41192        12.40268         2.26080
C         19.86941        10.43990         2.69136
C         20.17398        13.08647         1.26609
C         18.60740        14.83802         0.37422
C         18.33098        15.75422        -0.82352
C         19.86640        14.03614         0.28000
C         19.59378        16.33430        -1.45544
C         18.17730        18.06293        -2.57909
C         19.40366        17.35645        -2.51146
C         21.06441         3.17909        -1.60244
C         21.04081         4.59183        -1.06763
C         22.32205         5.07511        -0.45457
C         21.08571         6.56678         1.06215
C         21.06143         7.71929         1.90415
C         22.31637         6.06579         0.46202
C         22.21506         8.59436         1.99136
C         21.00668        10.82342         1.98553
C         21.04928        11.99549         1.09035
C         22.18375         9.96024         1.99118
C         21.84931        12.04697        -0.07189
C         20.77937        14.13569        -0.79834
C         20.79930        15.41108        -1.57035
C         21.76875        13.14196        -0.93776
C         21.70179        15.62730        -2.70276
C         20.43335        17.58673        -3.42661
C         21.55453        16.71913        -3.51925
O         17.41067         9.11575         3.53046
O         19.52050        13.21339         2.49944
O          7.39190        13.98926         2.89904
O         16.87389        17.30713         0.68126
O         10.06854        13.99547         2.68906
O         16.70894         5.33434        -1.19634
O         16.55135         5.13336         2.30650
O         19.90340         9.22081         3.39410
O          5.26672        12.55228         3.05177
O         11.57251        10.32302         3.37199
O         11.54740         3.53124         1.25144
O         13.81792        11.01154         0.56374
O          4.08484         4.24473        -3.03663
O         14.64466        13.58498         3.05265
O         13.83790         2.45164         0.58100
O         18.17873        15.29394         1.66784
O          2.22595         4.54681         0.08973
O         20.73942        16.55742        -0.61320
O         14.65792         9.08519         3.60155
O          6.53568         3.62069         0.34675
O         20.81311         5.45525        -2.24106
H         19.93242         5.22014        -2.60532
O         14.96440        13.01335        -0.38691
H         14.06279        12.72606        -0.67416
O         17.79729        14.84674        -1.84679
H         17.61491        15.37230        -2.65521
O          8.75800        16.20914         2.28556
H          8.96941        15.68168         3.09048
O         12.37272        13.43708        -0.87860
H         11.57391        12.88567        -1.01869
O          2.36739        14.57849         2.98720
H          3.22410        14.22113         3.30700
O         13.58420        15.40167         1.93534
H         14.48005        15.74274         2.14730
O         19.02252         5.19050         2.86269
H         18.16393         5.01169         3.31587
O          4.71822        15.42095        -1.79418
H          3.93629        15.67026        -2.33269
O          5.91452        16.16580         2.35529
H          6.28226        15.72186         3.15238
H          0.77430         2.17296        -3.43057
H          0.47903         3.59867        -1.53926
H          2.93853         1.24119        -4.03997
H          0.25731         5.97528         0.73754
H          0.23203         8.41808         1.18633
H          0.21115        10.27418         0.78822
H          0.16664        12.71988         0.97346
H          0.11501        14.77411         1.45603
H          0.20746        16.79829         0.08895
H          1.43116        18.40396        -1.30855
H          5.49191         1.19054        -2.99322
H          3.53235        19.29313        -2.26011
H          7.70380         1.37202        -2.61771
H          6.01202        19.17552        -2.45755
H         10.04092         1.30363        -2.31702
H          8.42913        19.01960        -2.68838
H         12.45676         1.34903        -2.23238
H         10.87924        19.11759        -2.66769
H         14.98976         1.36081        -2.22634
H         13.37962        19.30121        -2.52134
H         17.44321         1.57417        -2.41522
H         15.80670        19.25455        -2.67755
H         19.92704         1.51555        -2.30013
H         18.05516        18.82359        -3.36567
H         22.02490         2.76248        -1.94181
H         23.27288         4.68011        -0.84252
H         23.27374         6.45545         0.83698
H         23.20606         8.12822         1.87663
H         23.15102        10.47693         1.87812
H         22.56489        11.24017        -0.28340
H         22.47702        13.20007        -1.77584
H         22.50393        14.90223        -2.89922
H         20.32028        18.39209        -4.16669
H         22.27893        16.88864        -4.32863
