         252
 CSIRO Nanostructure Databank - Neutral Graphene Oxide Data Set
C         31.10434        32.08087         3.29174
C         31.16609        33.31324         3.21259
C         31.15963        36.47955         2.49105
C         30.96196        37.71348         2.17962
C         31.42514        40.86762         2.05396
C         31.45442        42.13055         2.11760
C         32.83400        28.97135         2.08204
C         32.05762        29.70495         2.71849
C         33.10399        31.72101         2.03666
C         32.00343        31.12867         2.71191
C         33.32150        33.21127         2.13697
C         32.31864        34.20505         2.89468
C         33.06286        36.08585         1.23943
C         32.00692        35.46233         2.10455
C         33.32499        37.57285         1.35509
C         32.22605        38.45315         1.92743
C         33.37759        40.46955         0.88161
C         32.27927        39.87609         1.58869
C         33.47254        41.89331         0.81583
C         32.57845        42.75408         1.50297
C         32.80581        44.08229        -0.94649
C         31.58851        44.37361        -1.07849
C         35.35653        27.23109         1.28580
C         35.13270        28.61028         0.82663
C         33.93980        29.44036         1.25125
C         35.17820        31.48257         0.62613
C         34.08210        30.92965         1.31828
C         35.06266        32.93321         0.19356
C         34.29675        33.80329         1.17484
C         35.50895        35.93639         0.48644
C         34.19190        35.24830         0.77173
C         35.38913        37.36818        -0.03142
C         34.37845        38.19493         0.49721
C         35.50523        40.17381        -0.44755
C         34.41148        39.60665         0.29285
C         35.55879        41.62575        -0.63435
C         34.60349        42.56406         0.08389
C         35.19330        44.41189        -1.43349
C         34.12488        43.71037        -0.81819
C         35.38397        45.74006        -1.80841
C         37.61172        27.06908         0.39361
C         36.47296        26.69833         1.17816
C         37.56448        28.52120         0.15505
C         36.41829        29.28433         0.42515
C         37.48159        31.42333        -0.27079
C         36.33119        30.72491         0.20948
C         37.52697        32.83064        -0.43501
C         36.36931        33.62052        -0.15318
C         37.42408        35.59905        -1.09681
C         36.40569        35.00665        -0.29551
C         37.34151        36.96473        -1.44075
C         36.43132        37.91697        -0.84144
C         37.70246        40.00273        -1.68189
C         36.50703        39.34546        -1.02549
C         37.74213        41.49993        -1.83589
C         36.55163        42.24189        -1.34876
C         37.75445        44.48254        -1.97865
C         36.45515        43.67577        -1.72486
C         37.74468        45.95859        -1.85312
C         36.43431        46.44706        -1.94903
C         40.29511        24.57508        -0.21768
C         39.16794        24.98785         0.15660
C         40.40179        27.33008        -0.64068
C         38.51208        26.20137        -0.21603
C         40.12770        28.61252        -0.22094
C         38.76645        29.23042        -0.50084
C         40.07388        31.48437        -0.31558
C         38.79075        30.71978        -0.19011
C         40.08199        32.81533        -1.03354
C         38.72105        33.50243        -0.89811
C         40.50505        35.86621        -1.40016
C         38.53550        34.75773        -1.44875
C         40.42268        37.30930        -1.29126
C         39.27253        38.06180        -1.78064
C         40.12950        40.16518        -0.88256
C         39.04648        39.36942        -1.49947
C         40.37635        41.58021        -1.38580
C         39.07201        42.26788        -1.84179
C         40.21118        44.54060        -1.26444
C         39.06870        43.76835        -1.82942
C         40.22281        45.93900        -1.31233
C         38.96705        46.65040        -1.62650
C         40.24330        48.71575        -1.44516
C         39.19028        48.02184        -1.59989
C         42.86901        24.54127        -0.81311
C         41.57850        25.11491        -0.51478
C         42.93450        27.21841        -0.74482
C         41.63021        26.52841        -0.60296
C         43.13901        28.36369        -0.03639
C         41.21314        29.45686         0.23121
C         42.64084        31.56291         0.17124
C         41.37604        30.75469        -0.16561
C         42.56101        32.96360        -0.43875
C         41.36795        33.60803        -0.67841
C         42.46142        35.74360         0.09372
C         41.40314        35.07735        -0.72093
C         42.47081        37.27189         0.10378
C         41.39369        37.98304        -0.58708
C         42.65847        40.18229        -0.39096
C         41.33931        39.44574        -0.40720
C         42.55841        41.66628        -0.11605
C         41.19606        42.34675        -0.30606
C         42.64766        44.57740        -0.44351
C         41.30108        43.84551        -0.57651
C         42.69076        45.95893        -0.93941
C         41.48151        46.66884        -1.10324
C         42.80860        48.66074        -1.06373
C         41.48939        48.14933        -1.20819
C         43.92415        25.12178        -1.09984
C         45.46684        27.16859        -0.79650
C         44.19716        26.56807        -1.43060
C         45.44731        28.72742        -0.81963
C         44.27361        29.28737        -0.14404
C         45.21550        31.61713        -0.52906
C         44.02105        30.80969        -0.07320
C         45.15164        33.12030        -0.56829
C         43.81591        33.84643        -0.61659
C         44.88707        35.69867         0.96323
C         43.72308        35.04866         0.26695
C         44.97906        37.20341         0.66818
C         43.76651        38.00236         0.23718
C         44.91101        40.16830         0.65705
C         43.73993        39.46117         0.38517
C         44.93514        41.58349         0.52335
C         43.75482        42.33706         0.14071
C         45.08795        44.42409        -0.03436
C         43.87602        43.79066        -0.11613
C         45.23988        45.84910        -0.48979
C         44.04256        46.60439        -1.01966
C         43.89701        48.06336        -1.02465
C         47.79781        27.56896        -1.52706
C         46.78185        26.87531        -1.47273
C         47.96820        29.05352        -1.52671
C         46.69380        29.51025        -0.74668
C         47.76174        31.88838        -0.84084
C         46.58941        30.97882        -0.44040
C         47.60889        33.22051        -0.13424
C         46.37531        33.84784        -0.09554
C         47.37548        35.80973         1.04635
C         46.24491        35.10089         0.60868
C         47.22167        37.15015         1.69643
C         46.04244        37.94182         1.32093
C         47.15035        40.14539         1.82439
C         46.20503        39.39361         0.90607
C         47.15911        41.64058         1.72232
C         46.29320        42.25978         0.61683
C         47.62908        44.39792         0.66205
C         46.19475        43.79070         0.81245
C         47.33341        45.88581         0.76916
C         46.44894        46.42769         0.09364
C         50.52677        29.46304        -1.56609
C         49.21380        29.64132        -0.86747
C         50.24438        31.98612        -0.62516
C         49.13037        31.20023        -0.70947
C         50.14995        33.23672         0.19365
C         48.77504        33.84994         0.49850
C         49.86784        35.98716         1.26271
C         48.68779        35.25882         0.93205
C         49.79233        37.33133         1.76135
C         48.49043        37.92172         2.09989
C         49.61426        40.22883         2.55306
C         48.38122        39.42262         2.31977
C         49.58855        41.61620         2.69964
C         48.39157        42.40089         2.23569
C         49.95557        44.04606         1.68212
C         48.60144        43.74876         1.60766
C         51.57638        30.11232        -1.42403
C         52.69773        32.34067        -0.60858
C         51.60163        31.60749        -1.35534
C         52.47512        33.45389        -0.10200
C         51.31777        34.12603         0.39170
C         52.22805        36.28458         1.29161
C         51.17684        35.37021         0.97306
C         52.15123        37.42999         1.76543
C         50.94149        38.14989         2.03600
C         51.93692        40.34489         2.79693
C         50.85988        39.46910         2.50875
C         52.05277        41.52768         3.15919
C         50.83915        42.42295         3.20996
C         50.97914        43.68900         2.32888
O         44.77674        37.54149        -0.76040
O         42.00663        36.52422         1.26568
O         34.69400        33.55382         2.55120
O         34.04627        28.86932        -0.07610
O         40.32416        39.88425         0.54350
O         37.49818        40.63264        -2.98757
O         47.24547        39.70965         3.19300
O         45.18920        32.31220        -1.80958
O         44.43871        30.07658         1.10809
O         42.21073        28.76840         0.92459
O         41.67923        44.50854         0.67611
O         39.56702        35.26451        -2.25857
O         47.71306        37.17184         3.07416
O         39.34800        43.01300        -3.06979
O         39.27218        26.74910        -1.28945
O         36.96205        43.94386        -3.06351
O         33.12726        35.57933        -0.15031
O         45.00902        46.01036        -1.91320
O         33.36609        38.02173         2.74194
O         38.23417        37.36823        -2.42694
O         46.92556        30.07653         0.62348
O         39.41876        31.32077         1.00242
O         49.46297        32.96719         1.46332
O         47.15658        42.27653         3.00630
O         43.71586        34.39763        -1.97378
H         44.12152        33.73467        -2.57918
O         46.99030        41.97271        -0.61400
H         46.55245        42.44883        -1.34988
O         43.15035        40.02411        -1.77110
H         43.99872        40.50966        -1.84831
O         47.89246        29.53902        -2.86967
H         47.25010        28.99294        -3.37005
O         44.70097        35.60582         2.40011
H         44.51183        34.67498         2.64017
O         34.27852        32.92072        -1.03139
H         34.71759        32.33184        -1.68020
O         45.79413        44.11620         2.15302
H         45.00635        43.58760         2.39776
O         40.43250        42.27713         0.91679
H         40.85387        42.88709         1.56244
O         38.51224        29.20961        -1.92905
H         38.55690        28.26944        -2.22189
O         46.87783        39.30260        -0.38806
H         46.27540        38.78007        -0.97472
O         51.50479        32.14778        -2.64764
H         52.25551        31.82743        -3.18805
O         44.23150        26.79107        -2.82097
H         43.50123        26.29826        -3.24781
O         42.62480        31.81835         1.59227
H         42.90770        30.98615         2.03922
O         45.49763        26.75387         0.55406
H         46.26530        27.17026         0.99976
O         32.85790        44.06657         1.66078
H         32.05217        44.55997         1.91413
O         50.57853        42.85833         4.50511
H         51.36938        43.29725         4.87906
O         32.93766        34.61898         4.10383
H         33.91426        34.53775         3.99227
O         49.30834        29.08281         0.42940
H         50.09690        29.44572         0.88267
O         41.21838        41.45963        -2.54234
H         40.80594        41.97547        -3.27636
O         35.44919        43.24667         1.06610
H         34.85494        43.81023         1.61312
O         47.69434        32.18815        -2.25404
H         47.78121        31.34067        -2.75914
O         36.14765        36.06449         1.79398
H         37.03244        36.47068         1.68127
O         48.12276        44.18807        -0.65380
H         49.04762        44.50974        -0.70159
O         40.25256        32.48473        -2.43810
H         40.21972        33.33068        -2.93981
