         210
 CSIRO Nanostructure Databank - Neutral Graphene Oxide Data Set
C         31.04435        31.55835         2.19903
C         31.23658        32.71071         2.62751
C         30.93070        35.94491         2.44397
C         30.88806        37.19921         2.35503
C         30.70551        40.37872         2.00836
C         30.69183        41.61340         1.86147
C         32.22203        29.63871        -0.79209
C         31.46308        29.94929         0.17337
C         33.17343        31.08338         1.23015
C         31.78437        30.72645         1.29556
C         33.43053        33.14270         1.97702
C         32.20747        33.73300         2.35993
C         33.14656        35.91668         1.62800
C         32.04824        35.13294         2.15159
C         33.09390        37.35995         1.57088
C         31.92135        38.07189         1.97848
C         33.08876        40.32649         1.46174
C         31.90443        39.53647         2.05765
C         32.93018        41.75534         1.03969
C         31.69497        42.46435         1.29221
C         32.78905        44.36688         0.46649
C         31.75496        43.82637         0.95486
C         35.42113        27.67346        -1.89760
C         35.36229        29.07172        -1.67484
C         33.53112        30.14051        -0.97300
C         35.34270        31.63676         0.04453
C         34.03886        30.89790         0.12069
C         35.44191        33.04674         0.49637
C         34.38975        33.78614         1.17420
C         35.41982        35.95495         0.66417
C         34.30781        35.22382         1.13372
C         35.40041        37.39186         0.66310
C         34.24127        38.10755         1.08952
C         35.34574        40.21390         0.42659
C         34.23271        39.53211         0.94185
C         35.24420        41.64786        -0.04309
C         34.04134        42.41675         0.46763
C         35.24106        44.49302        -0.28346
C         34.04414        43.81274         0.17295
C         35.35711        45.84210        -0.66638
C         37.71916        27.49102        -1.07426
C         36.49111        27.06872        -1.59232
C         37.67725        28.89186        -0.80609
C         36.47127        29.64787        -1.01885
C         37.74209        31.75128        -0.81781
C         36.44036        31.04368        -0.56549
C         37.80511        33.14167        -0.27507
C         36.60198        33.78438         0.20017
C         37.79254        35.92113         0.06822
C         36.62130        35.22605         0.34515
C         37.72846        37.35547        -0.20211
C         36.54522        38.10479         0.22716
C         37.80125        40.22175        -0.08605
C         36.55885        39.51430         0.15113
C         37.82874        41.68852         0.06334
C         36.53289        42.43329         0.14723
C         37.73240        44.51645        -0.63204
C         36.51544        43.85501        -0.27954
C         37.71208        45.88761        -1.03836
C         36.42180        46.43604        -0.98910
C         40.09531        24.62017        -1.04693
C         39.07260        25.34029        -1.15711
C         40.16213        27.32873        -0.58853
C         38.93274        26.72910        -0.93417
C         40.15012        28.76198        -0.08279
C         38.92223        29.56188        -0.47701
C         40.24157        31.63793        -0.41362
C         38.98284        30.94218        -0.50595
C         40.26488        33.06483        -0.46207
C         39.01853        33.78937        -0.30155
C         40.27320        35.97900        -0.44100
C         39.11208        35.22077         0.14178
C         40.28910        37.35802        -0.47672
C         39.00891        38.10479        -0.48999
C         40.26379        40.25479        -0.36391
C         39.00986        39.56092        -0.29204
C         40.27407        41.68748        -0.38494
C         39.05488        42.41655        -0.30679
C         40.25772        44.49079        -0.74308
C         39.02099        43.80814        -0.57179
C         40.29847        45.89063        -1.21126
C         38.92854        46.58930        -1.45486
C         40.20668        48.63599        -1.40723
C         39.11767        48.03627        -1.37286
C         42.64488        24.51439        -0.62471
C         41.37611        25.13385        -0.74088
C         42.63804        27.29168        -0.36619
C         41.38570        26.58186        -0.52938
C         42.65658        28.76202        -0.33297
C         41.46563        29.48068        -0.32932
C         42.70927        31.62677        -0.36657
C         41.47826        30.92092        -0.36602
C         42.72518        33.06796        -0.43850
C         41.48411        33.76112        -0.51172
C         42.76305        35.94794        -0.53683
C         41.49185        35.21989        -0.88140
C         42.75671        37.36674        -0.53354
C         41.51629        38.10126        -0.57075
C         42.72087        40.26004        -0.56329
C         41.49297        39.53213        -0.49958
C         42.74928        41.67204        -0.49945
C         41.51080        42.39070        -0.46828
C         42.72718        44.54161        -0.43176
C         41.49637        43.81518        -0.54774
C         42.70455        45.99526        -0.53172
C         41.52972        46.68818        -0.96508
C         42.73553        48.74340        -0.79186
C         41.50381        48.12561        -1.06932
C         43.67711        25.22198        -0.49195
C         45.18726        27.29159        -0.52084
C         43.86927        26.60556        -0.37728
C         45.14461        28.77570        -0.11602
C         43.92472        29.46594        -0.23636
C         45.16916        31.60395        -0.11752
C         43.94714        30.90609        -0.23584
C         45.25233        33.05398        -0.51562
C         43.94616        33.78984        -0.41184
C         45.21023        35.94036        -0.26401
C         43.96995        35.22412        -0.41853
C         45.21642        37.36287        -0.34510
C         43.99413        38.06086        -0.51205
C         45.29302        40.28291        -0.56126
C         43.97200        39.51287        -0.73227
C         45.22102        41.71838        -0.25507
C         43.99320        42.40127        -0.36008
C         45.15455        44.53035         0.12548
C         43.94658        43.84048        -0.20329
C         45.04067        46.02320         0.47875
C         43.89903        46.70381        -0.20755
C         43.72948        48.07494        -0.37958
C         47.33617        27.36812         0.54191
C         46.33246        26.68961         0.27850
C         47.52579        28.78403         0.63752
C         46.32649        29.48289         0.25583
C         47.55117        31.63860         0.60434
C         46.35807        30.92000         0.24123
C         47.55972        33.09817         0.53829
C         46.42017        33.79988         0.09041
C         47.62244        35.94192         0.31255
C         46.42102        35.21923         0.04093
C         47.64411        37.36949         0.15882
C         46.45707        38.09582        -0.15931
C         47.66302        40.23659         0.16569
C         46.48360        39.51313        -0.17509
C         47.63557        41.67309         0.30522
C         46.43220        42.39024         0.12020
C         47.63509        44.54594         0.38664
C         46.37200        43.83574         0.25344
C         47.40929        45.94713         0.28176
C         46.40053        46.66230         0.19097
C         49.92547        28.93815         1.39017
C         48.67380        29.47700         1.00594
C         49.89522        31.62005         1.48343
C         48.70797        30.93288         1.03289
C         49.83542        33.10272         1.57480
C         48.71836        33.82952         0.93770
C         50.03854        35.96819         0.90168
C         48.78501        35.23699         0.76078
C         50.10579        37.34875         0.52438
C         48.86719        38.08824         0.30617
C         50.16259        40.19925         0.51592
C         48.86709        39.49429         0.31309
C         50.17575        41.66109         0.84686
C         48.80932        42.38253         0.99503
C         50.13626        44.33805         0.55345
C         48.83357        43.87553         0.58326
C         50.98878        29.49781         1.73615
C         52.18947        31.77917         2.11582
C         51.09564        30.91555         1.80368
C         52.28594        33.00730         1.93448
C         51.15261        33.91896         1.83946
C         52.37780        36.03805         1.12581
C         51.22193        35.27302         1.30514
C         52.43852        37.23318         0.71662
C         51.34449        38.04254         0.39911
C         52.57078        40.29318         0.25664
C         51.36431        39.45674        -0.10745
C         52.52629        41.53814         0.35205
C         51.48040        42.44920         0.60731
C         51.30589        43.82303         0.52788
O         37.78713        32.01562        -2.33650
O         34.29282        29.86778        -2.09671
O         50.18578        33.68836         2.87856
O         39.67259        46.01742        -2.54635
O         32.92135        40.10991         2.91141
O         33.67696        31.79909         2.32949
O         38.14837        37.68020        -1.60497
O         37.24987        42.16105         1.37568
O         50.36008        40.64850         1.89861
O         44.77249        39.93661        -1.88862
O         45.55617        33.00833        -1.97095
H         45.40224        33.90813        -2.33168
O         40.05066        28.64854         1.38338
H         40.82370        28.13167         1.69623
O         48.49281        42.38675         2.40113
H         48.97307        41.62725         2.80892
O         45.53069        27.23187        -1.90374
H         46.40412        27.65736        -2.03079
O         39.43607        35.14493         1.59495
H         39.48119        36.06197         1.94104
O         37.92687        30.74295        -3.00897
H         37.16918        30.75314        -3.64332
O         41.43531        35.21303        -2.36508
H         41.30779        36.14082        -2.65918
O         51.18231        39.45951        -1.52058
H         51.87550        38.90341        -1.93275
O         44.81333        46.09556         1.88680
H         44.64994        47.03055         2.13094
O         35.08219        41.57401        -1.49464
H         34.27219        41.05987        -1.69505
