         762
 CSIRO Nanostructure Databank - Neutral Graphene Oxide Data Set
C         22.85583        24.49757         0.80471
C         21.64986        25.18728         0.72877
C         22.83042        27.30986         0.59336
C         21.62988        26.57558         0.60337
C         22.81904        28.77489         0.51609
C         21.65430        29.52546         0.60307
C         22.79174        31.69576         0.45590
C         21.63819        30.95076         0.59533
C         22.82086        33.15431         0.47175
C         21.71098        33.90909         0.18304
C         22.85869        36.04977         0.56116
C         21.71031        35.33661         0.31619
C         22.89746        37.53427         0.87430
C         21.59630        38.26388         0.66458
C         22.70342        40.34973        -0.08077
C         21.51880        39.55438         0.31516
C         22.75887        41.84574         0.16001
C         21.65606        42.61008         0.78710
C         22.95367        44.71209         0.66042
C         21.75681        43.94645         0.98291
C         22.97055        46.15389         0.71864
C         21.78327        46.90200         0.92015
C         22.99206        48.99190         0.68708
C         21.80562        48.29360         0.91090
C         25.34699        23.04018         0.58410
C         25.35781        24.45393         0.66936
C         24.08980        25.18483         0.76938
C         25.31833        27.35502         0.78681
C         24.06028        26.60088         0.69444
C         25.27676        28.79239         0.46137
C         24.08348        29.46991         0.37346
C         25.33320        31.71000         0.30123
C         24.05258        30.95149         0.21703
C         25.34340        33.12078         0.80369
C         24.03821        33.87594         1.04606
C         25.31781        36.06753         0.59553
C         24.13099        35.35583         0.66653
C         25.30681        37.50076         0.22410
C         24.09232        38.17618         0.18928
C         25.26776        40.30057        -0.59201
C         23.97801        39.55796        -0.31384
C         25.31113        41.77532        -0.24164
C         24.10030        42.52504         0.21577
C         25.33637        44.72950         0.12832
C         24.11937        44.02141         0.28626
C         25.39484        46.11831         0.32393
C         24.20456        46.86274         0.54107
C         25.42567        49.02685         0.21183
C         24.21714        48.31054         0.49635
C         25.48112        50.43328        -0.02766
C         27.71126        22.96922        -0.01001
C         26.48059        22.32208         0.26747
C         27.76092        24.38705         0.13057
C         26.60639        25.11574         0.50737
C         27.83892        27.31695         0.18624
C         26.67402        26.58836         0.70358
C         27.75150        28.73635        -0.10809
C         26.58894        29.49314         0.45142
C         27.86248        31.72168         0.06060
C         26.63349        30.97528         0.44979
C         27.82399        33.10007         0.12358
C         26.63309        33.84846         0.63356
C         27.90936        36.10974         0.50567
C         26.62803        35.35820         0.72172
C         27.90410        37.63825         0.31918
C         26.54587        38.21000        -0.10338
C         27.78250        40.28745        -0.73400
C         26.53149        39.55250        -0.42034
C         27.79345        41.80148        -0.82530
C         26.51688        42.57306        -0.65044
C         27.86645        44.72204        -0.21035
C         26.55507        44.03871        -0.36091
C         27.94389        46.07822        -0.02284
C         26.70090        46.81040         0.32060
C         27.92498        48.97749        -0.36370
C         26.71348        48.31057         0.26679
C         27.96670        50.44251         0.04304
C         26.66377        51.12980        -0.07684
C         29.95494        20.12216        -1.03474
C         28.85497        20.80410        -0.50538
C         30.08932        22.89223        -0.85716
C         28.87549        22.19769        -0.38493
C         30.13837        24.38579        -0.83641
C         29.05292        25.08890        -0.08150
C         30.17602        27.30656        -0.84811
C         29.07612        26.60742        -0.09704
C         30.28709        28.76960        -0.62038
C         29.01225        29.50557        -0.54560
C         30.24542        31.66081        -0.56579
C         29.06127        30.98939        -0.33050
C         30.36633        33.06855        -0.11056
C         29.09539        33.83777         0.16209
C         30.21992        36.01845        -0.70234
C         29.04131        35.31969        -0.10011
C         30.29115        37.50168        -0.68761
C         29.09582        38.20423        -0.45600
C         30.27540        40.32639        -0.85245
C         29.08157        39.60133        -0.64142
C         30.25657        41.78053        -0.69844
C         29.07393        42.48368        -0.57518
C         30.41444        44.63538        -0.06614
C         29.08405        43.89395        -0.14352
C         30.43843        46.10773        -0.18939
C         29.21107        46.82103        -0.08083
C         30.45750        48.93374        -0.36013
C         29.22706        48.23131        -0.16706
C         30.49915        50.36310        -0.45463
C         29.29802        51.15685        -0.07372
C         30.41816        53.21817        -0.81592
C         29.33754        52.61501        -0.29242
C         33.38476        18.33937        -0.61439
C         33.15431        19.66758        -0.83943
C         31.17766        20.78669        -1.24950
C         32.64182        22.84164        -0.96508
C         31.35872        22.15083        -0.99414
C         32.62305        24.31069        -1.12892
C         31.46627        25.04398        -1.01207
C         32.67166        27.21473        -1.63150
C         31.38187        26.50256        -1.31283
C         32.65594        28.73592        -1.66551
C         31.29231        29.47354        -1.51548
C         32.74773        31.63800        -1.10841
C         31.41289        30.96726        -1.19529
C         32.76399        33.07060        -0.87169
C         31.64663        33.87880        -0.31056
C         32.74097        35.99897        -1.26409
C         31.47246        35.24600        -0.99415
C         32.78464        37.48143        -1.08675
C         31.50422        38.19537        -0.97739
C         32.76651        40.36215        -0.92539
C         31.49342        39.60818        -0.96588
C         32.68099        41.82110        -1.13018
C         31.51145        42.51149        -0.67731
C         32.93345        44.55281        -0.34244
C         31.59892        43.87766        -0.46889
C         32.88880        46.03442        -0.61406
C         31.66033        46.76987        -0.46559
C         32.88842        48.89329        -0.84211
C         31.67810        48.20621        -0.56087
C         32.92382        50.30655        -0.94298
C         31.68388        51.02160        -0.81861
C         32.99719        53.21266        -1.22922
C         31.64631        52.46402        -1.13456
C         33.05210        54.66489        -1.02642
C         35.38239        18.80411         0.71095
C         34.47343        17.91068         0.19970
C         35.16675        20.26051         0.53204
C         33.93466        20.75769        -0.22493
C         35.17411        22.80822        -1.01666
C         33.85031        22.18289        -0.72508
C         35.21865        24.24307        -1.49658
C         33.89937        25.00192        -1.48683
C         35.20634        27.14832        -1.73315
C         33.93418        26.47369        -1.45837
C         35.23894        28.67978        -1.58221
C         33.95451        29.38510        -1.23265
C         35.31726        31.59876        -0.76403
C         34.02225        30.85885        -0.93818
C         35.23514        32.97577        -0.63649
C         34.03019        33.73533        -1.06786
C         35.22566        35.93615        -0.68328
C         34.03994        35.22441        -1.22784
C         35.22736        37.40830        -0.53354
C         33.98883        38.13673        -0.93443
C         35.42530        40.23478        -1.00791
C         34.06871        39.61222        -0.82505
C         35.60107        41.44736        -1.60412
C         33.75340        42.58783        -1.57957
C         35.32333        44.48930        -1.12343
C         34.02721        43.89066        -1.14636
C         35.34521        45.91135        -0.92220
C         34.10992        46.65430        -0.86399
C         35.45337        48.83748        -1.03752
C         34.12300        48.11442        -1.08573
C         35.44316        50.29719        -0.78962
C         34.18834        51.02815        -0.95265
C         35.41877        53.16064        -0.64595
C         34.21602        52.43438        -0.94122
C         35.42724        54.54524        -0.45187
C         34.19735        55.27803        -0.63226
C         37.80379        16.48272         2.40375
C         36.62199        17.01374         1.91381
C         37.72009        19.15024         1.56279
C         36.57849        18.33264         1.41292
C         37.69643        20.55108         1.05880
C         36.40301        21.12143         0.55272
C         37.78796        22.87389        -0.74123
C         36.45790        22.18060        -0.51233
C         37.78995        24.29602        -1.26998
C         36.49860        25.03585        -1.41441
C         37.75946        27.15807        -1.81893
C         36.48445        26.39536        -1.59958
C         37.75081        28.70713        -1.89381
C         36.54184        29.33500        -1.18457
C         37.92427        31.47320        -0.95579
C         36.59788        30.78877        -0.73976
C         38.14723        32.77996        -0.50505
C         36.31180        33.84087        -0.21380
C         37.77368        35.84614        -0.73211
C         36.46769        35.15605        -0.54971
C         37.82513        37.28396        -0.28568
C         36.54373        38.10575        -0.24248
C         37.93414        40.30754        -0.54720
C         36.61413        39.61217        -0.36883
C         37.93636        41.61678        -0.98229
C         36.68973        42.33278        -1.26456
C         37.75687        44.36979        -0.42893
C         36.56718        43.71548        -1.11753
C         37.74756        45.87579        -0.46251
C         36.59971        46.61082        -0.73088
C         37.82608        48.73016        -0.31827
C         36.66165        48.06424        -0.67516
C         37.96899        50.22600        -0.49553
C         36.62756        50.93646        -0.52334
C         37.81444        53.07298         0.23572
C         36.66853        52.40402        -0.47834
C         37.72589        54.50503         0.56924
C         36.62795        55.25047         0.01102
C         37.83491        57.37428         0.45573
C         36.73425        56.62881        -0.13685
C         40.46700        15.20514         2.19773
C         40.24796        16.50848         2.69028
C         38.98838        17.24129         2.45501
C         40.11175        19.48393         2.04595
C         38.92663        18.62744         2.09650
C         40.18946        20.62541         1.18439
C         38.98699        21.16690         0.64859
C         40.26718        23.02012        -0.32453
C         39.02427        22.35282        -0.09913
C         40.25501        24.34750        -0.89977
C         39.07477        25.01613        -1.17521
C         40.28755        27.21562        -1.27575
C         39.06553        26.43016        -1.61751
C         40.26047        28.67533        -1.48840
C         39.08122        29.35794        -1.53281
C         40.29535        31.55235        -1.50222
C         39.08574        30.81591        -1.42478
C         40.30275        32.96184        -1.43566
C         39.16372        33.63370        -0.97498
C         40.36994        35.89540        -0.98943
C         39.07859        35.12845        -0.98093
C         40.38485        37.28307        -0.83876
C         39.14394        37.99104        -0.39708
C         40.54522        40.14280        -0.22583
C         39.17105        39.50320        -0.24493
C         40.67208        41.59415         0.03012
C         39.07208        42.46487        -1.50625
C         40.28587        44.44396        -0.49142
C         39.10699        43.83044        -0.89943
C         40.27891        45.81109         0.08372
C         38.93404        46.54887         0.05257
C         40.16998        48.62954         0.50474
C         38.99816        48.00494         0.06700
C         40.05575        50.02040         0.97637
C         38.93390        50.82536         0.51853
C         39.99402        52.93065         1.50507
C         38.69330        52.19342         1.09882
C         40.10484        54.38407         1.21425
C         38.94469        55.12927         0.97020
C         40.34157        57.25952         1.14259
C         39.00981        56.60643         1.03704
C         40.40356        58.64859         1.34232
C         42.84990        15.36736         2.70442
C         41.74304        14.63646         2.25759
C         42.67310        16.67173         3.20526
C         41.34929        17.13240         3.29490
C         42.55202        19.64926         2.44776
C         41.25908        19.20167         2.79193
C         42.65252        20.72474         1.53904
C         41.45231        21.26053         0.95247
C         42.76910        23.07501        -0.09782
C         41.49784        22.44967         0.15185
C         42.82671        24.36515        -0.69169
C         41.57710        24.98725        -1.28517
C         42.86393        27.18098        -1.15825
C         41.56930        26.48089        -1.06053
C         42.84531        28.63598        -1.34529
C         41.56439        29.38671        -1.50421
C         42.84582        31.53759        -1.45097
C         41.55975        30.84581        -1.09991
C         42.86827        32.96659        -1.75493
C         41.52816        33.74024        -1.69183
C         42.80263        35.82287        -1.37086
C         41.57656        35.16435        -1.31762
C         42.79873        37.29346        -1.48133
C         41.58798        38.05735        -1.09937
C         42.84345        40.25523        -1.31388
C         41.65418        39.43947        -0.92622
C         42.83157        41.79366        -1.28923
C         41.67296        42.39617        -0.52698
C         42.85337        44.56664        -0.57648
C         41.55888        43.79892        -0.54216
C         42.77547        45.92998         0.06954
C         41.51175        46.59788         0.17515
C         42.63578        48.67629         0.92020
C         41.42912        47.94633         0.60668
C         42.63457        50.00705         1.37197
C         41.30686        50.66151         1.60029
C         42.53034        52.87784         2.03915
C         41.23185        52.14874         1.84054
C         42.62009        54.32458         1.67279
C         41.46706        54.98782         0.90659
C         42.77760        57.15531         1.16373
C         41.52542        56.49829         1.07925
C         42.81207        58.54904         1.33837
C         41.63462        59.28980         1.43354
C         44.99909        17.05489         3.89371
C         43.79329        17.58959         3.48559
C         45.10791        19.67970         2.78232
C         43.73389        19.02877         3.11771
C         45.11765        20.70952         1.72599
C         43.95366        21.27217         1.20027
C         45.23171        23.05745         0.06990
C         44.00842        22.45598         0.35104
C         45.32336        24.29867        -0.79902
C         44.03567        25.07246        -0.79079
C         45.33025        27.22567        -0.92024
C         44.06526        26.49804        -0.99687
C         45.34975        28.63220        -0.94456
C         44.07286        29.36216        -0.90678
C         45.36987        31.53482        -1.16507
C         44.07233        30.88124        -1.01103
C         45.39339        32.96211        -1.67258
C         44.10126        33.73055        -1.52843
C         45.30020        35.87894        -1.21743
C         44.06898        35.11862        -1.45954
C         45.32129        37.23640        -1.07443
C         44.13914        38.02337        -1.42635
C         45.37959        40.17689        -0.74605
C         44.17352        39.51715        -1.30361
C         45.35216        41.55619        -0.38053
C         44.23559        42.46341        -0.88191
C         45.13765        44.31145         0.67311
C         43.90059        43.62097         0.09114
C         45.15836        45.81722         0.79646
C         43.94984        46.57567         0.38841
C         45.23265        48.77365         0.81189
C         43.93027        48.03621         0.60547
C         45.15504        50.07431         1.53027
C         43.86416        50.68084         1.69925
C         45.05375        52.81539         2.52424
C         43.77234        52.04878         2.26858
C         45.10807        54.25519         2.21704
C         43.98941        54.91359         1.51771
C         45.33005        57.07446         1.46473
C         44.05574        56.38038         1.17150
C         46.24270        17.72782         3.75012
C         47.63329        19.48859         2.67220
C         46.34558        18.92625         3.07367
C         47.66958        20.57975         1.82776
C         46.43061        21.08868         1.19431
C         47.75745        23.15684         0.40659
C         46.48817        22.35295         0.34086
C         47.87874        24.36532        -0.50307
C         46.57347        25.12293        -0.57334
C         47.78858        27.27034        -0.51758
C         46.56388        26.50916        -0.68654
C         47.76220        28.67332        -0.60689
C         46.55093        29.38521        -0.81118
C         47.83436        31.54619        -1.00730
C         46.54644        30.83763        -0.94903
C         47.86661        32.97757        -1.21840
C         46.57501        33.67635        -1.08110
C         47.83697        35.89267        -1.06602
C         46.55976        35.14598        -0.93575
C         47.79722        37.25380        -0.92040
C         46.52238        37.91049        -0.44687
C         47.76251        40.08253        -0.23899
C         46.54599        39.42156        -0.54241
C         47.74024        41.45452         0.22099
C         46.48405        42.15667         0.19256
C         47.68240        44.25650         1.16493
C         46.41558        43.53791         0.75792
C         47.74322        45.74939         1.09345
C         46.45969        46.52456         1.04482
C         47.73456        48.63172         1.44577
C         46.57851        48.01026         0.68704
C         47.62374        49.93008         1.95620
C         46.36764        50.65008         1.99185
C         47.61791        52.77242         2.81077
C         46.33644        52.01817         2.58335
C         47.65014        54.27617         2.76558
C         46.32189        55.02779         2.46648
C         46.37574        56.43350         2.01184
C         50.09865        19.42214         2.83130
C         48.87899        18.95961         3.20408
C         50.25148        20.46012         1.79820
C         48.96428        21.09313         1.32279
C         50.33070        23.16479         0.62471
C         49.01716        22.52597         0.90020
C         50.33858        24.50568         0.17817
C         49.09268        25.19622        -0.15197
C         50.29312        27.35450        -0.22173
C         49.02875        26.57286        -0.24502
C         50.24022        28.80833         0.12115
C         48.95690        29.47232        -0.24964
C         50.30047        31.46498        -1.01888
C         49.00076        30.87200        -0.69818
C         50.29313        32.96032        -1.39122
C         49.03834        33.71167        -1.30242
C         50.28072        35.86103        -1.52802
C         49.07295        35.17243        -1.32079
C         50.28321        37.37251        -1.54856
C         48.98372        38.07973        -1.16117
C         50.21285        40.03687        -0.20003
C         49.00876        39.41718        -0.50460
C         50.18628        41.30834         0.56413
C         48.92759        42.06510         0.67310
C         50.24491        44.18800         1.46386
C         48.94522        43.44054         1.25209
C         50.19348        45.70582         1.70191
C         48.93058        46.42225         1.23241
C         50.21386        48.49063         1.66858
C         48.97092        47.87687         1.43140
C         50.20068        49.86696         2.18843
C         48.87463        50.54928         2.48902
C         50.18737        52.80332         2.47551
C         48.92287        52.03959         2.70807
C         50.05903        54.23699         2.13157
C         48.90955        54.91367         2.31597
C         52.73378        20.64281         2.03273
C         51.52728        21.21954         1.63982
C         52.79737        23.18891         0.84998
C         51.54225        22.51439         1.01906
C         52.79958        24.55351         0.41898
C         51.58341        25.20222         0.14580
C         52.82953        27.43091         0.19553
C         51.60642        26.65006        -0.11970
C         52.81716        28.82008         0.11338
C         51.54007        29.61805         0.27450
C         52.75969        31.58371        -0.68862
C         51.56494        30.88918        -0.55207
C         52.76763        32.98338        -1.07906
C         51.54903        33.68223        -1.25749
C         52.76555        35.60733        -1.86100
C         51.50679        35.07280        -1.52998
C         52.75998        37.77401        -1.75369
C         51.50470        38.20440        -1.28077
C         52.71624        40.10351        -0.31012
C         51.47039        39.42557        -0.56615
C         52.71550        41.43122         0.19518
C         51.49828        42.04520         0.74808
C         52.72621        44.33408         0.81831
C         51.54593        43.50022         1.16459
C         52.66471        45.72247         0.91140
C         51.47503        46.42366         1.30388
C         52.75759        48.55255         1.54693
C         51.49067        47.81910         1.47816
C         52.68775        49.94981         1.98979
C         51.45298        50.65560         2.09127
C         52.65302        52.77808         2.33757
C         51.44948        52.06161         2.21060
C         53.96137        21.28130         1.81782
C         55.30334        23.20660         0.98001
C         54.03085        22.54874         1.21903
C         55.32554        24.52013         0.22998
C         54.04254        25.29841         0.35363
C         55.31313        27.42976         0.49822
C         54.05013        26.68116         0.31122
C         55.30322        28.93003         0.35587
C         54.02602        29.59276         0.04386
C         55.26457        31.68186        -0.41505
C         54.02116        30.94127        -0.32861
C         55.23975        33.01653        -0.82420
C         54.00316        33.69899        -1.08872
C         55.21786        35.90879        -1.62160
C         53.98128        35.07650        -1.43672
C         55.21606        37.36706        -1.08719
C         53.98671        38.23594        -1.29333
C         55.21896        40.10167        -0.30806
C         53.97022        39.48373        -0.63041
C         55.10449        41.34720         0.30958
C         53.92209        42.11548         0.37630
C         55.07427        44.41032        -0.25745
C         53.90213        43.61363         0.26630
C         55.00986        45.91578        -0.19999
C         53.79333        46.58768         0.43793
C         55.24426        48.57598         0.85946
C         53.94186        47.95313         1.02475
C         55.68797        49.67683         1.63905
C         53.82433        50.69011         2.38697
C         53.84272        52.08071         2.50398
C         57.75923        23.26040         0.98060
C         56.52921        22.60916         1.23401
C         57.82288        24.61429         0.61368
C         56.59255        25.32706         0.44984
C         57.81466        27.47467         0.30565
C         56.59849        26.71707         0.37530
C         57.79743        28.90806         0.14165
C         56.57417        29.62633         0.08053
C         57.77543        31.73651        -0.20741
C         56.54422        31.01823        -0.16576
C         57.75374        33.21670        -0.27333
C         56.46877        33.84127        -0.74774
C         57.80602        35.94148        -1.41423
C         56.50677        35.17637        -1.42438
C         57.76106        37.50894        -1.47777
C         56.49293        38.19044        -1.20007
C         57.74390        40.30078        -0.94055
C         56.50606        39.51308        -0.74720
C         57.78043        41.76745        -0.99648
C         56.79345        42.54371        -0.28064
C         57.36530        44.62125        -1.35653
C         56.40997        43.81615        -0.56711
C         57.55391        45.97586        -0.70812
C         56.25952        46.67124        -0.35653
C         57.51002        48.76633        -0.25758
C         56.30243        48.01003         0.02886
C         57.74141        49.97119         0.39873
C         56.86356        50.38758         1.41028
C         60.31103        24.68243         0.53045
C         59.07510        25.34661         0.49524
C         60.28530        27.48473         0.14039
C         59.05432        26.77045         0.30910
C         60.26235        28.91189        -0.07370
C         59.02858        29.62212        -0.05746
C         60.25513        31.77366        -0.44356
C         59.01133        31.05129        -0.21789
C         60.28488        33.17618        -0.61629
C         59.07348        33.99704        -0.23918
C         60.24224        36.06942        -1.04406
C         59.03963        35.34434        -0.94879
C         60.23569        37.51349        -1.20851
C         59.01800        38.21352        -1.23047
C         60.16905        40.36284        -1.67093
C         58.93993        39.64189        -1.25225
C         60.06433        41.85147        -1.97960
C         58.74873        42.47630        -1.69135
C         59.78626        44.74413        -2.38204
C         58.57832        43.93325        -1.91481
C         59.65958        46.24307        -2.08976
C         58.58391        46.82776        -1.39025
C         59.52612        49.03947        -1.73625
C         58.53615        48.22109        -1.15695
C         61.50905        25.38826         0.38391
C         61.50100        26.76280         0.18709
C         61.46179        29.64359        -0.31779
C         61.45693        31.00288        -0.50910
C         61.46707        33.92879        -0.86773
C         61.46421        35.30674        -0.96241
C         61.45192        38.30970        -1.18948
C         61.43655        39.65030        -1.40751
C         61.21682        42.78357        -1.81580
C         61.07474        44.11737        -1.88882
C         60.63253        47.08732        -2.64845
C         60.55433        48.47217        -2.48577
O         26.31321        43.51825        -1.74259
O         49.67096        20.13999         0.47493
O         38.53200        26.63531        -2.96178
O         37.95249        23.14173        -2.16292
O         45.49135        43.63897         1.91607
O         40.30132        52.54130         2.89583
O         38.65185        37.42602         0.89092
O         34.89537        36.53600         0.62615
O         35.23097        28.09496        -2.88731
O         22.42050        41.29873        -1.15748
O         44.59292        48.81731        -0.51159
O         32.68988        27.99516        -2.89473
O         26.23762        33.25470         1.94177
O         25.02889        41.93087         1.19721
O         27.50661        35.74694         1.84097
O         34.50267        24.45808        -2.74244
O         54.06239        43.90109        -1.19968
O         37.33266        33.24993         0.51223
O         34.84105        48.48472        -2.31988
O         28.74153        50.75315         1.23626
O         26.83187        30.23213         1.70202
O         31.98392        31.56862        -2.40877
O         28.01994        38.24021         1.59068
O         26.12245        27.05570         1.97787
O         36.42987        38.96569         0.92448
O         26.93063        47.63328         1.53325
O         29.09606        35.54200        -1.54922
O         33.86629        29.84453         0.14326
O         39.70004        42.10012        -2.49252
O         46.91720        54.90775         3.82751
O         42.14647        33.41709        -2.96938
O         31.90353        35.47285        -2.35218
O         29.89940        33.30713         1.26686
O         32.20215        19.99654        -1.78971
O         57.91077        36.68372        -2.66541
O         60.10010        40.89057        -3.06849
O         29.71470        23.74229        -2.06737
O         42.36645        29.07564        -2.69013
O         43.58585        39.99627        -2.56190
O         33.98906        20.75527         1.25049
O         49.57647        49.84801         3.54257
O         51.06681        27.08431        -1.44364
O         40.76228        26.90165         0.09612
O         37.87091        52.90304        -1.22168
O         50.34161        31.92559        -2.41869
O         56.24802        41.92160         0.84717
O         44.22850        55.36198         0.10467
O         33.43444        40.11618         0.40619
O         49.30472        29.16487         1.18203
O         29.77777        44.11203         1.14961
O         36.87850        21.51881         1.86407
O         44.37189        19.97924         4.01321
O         46.40709        34.26536         0.25411
O         38.23660        35.63646        -2.11522
O         29.55532        25.81604         1.07424
O         57.42208        44.35880        -2.77503
O         39.45521        45.92085         1.29801
O         41.13613        18.37276         3.91608
O         35.91738        21.78479        -1.80199
O         49.43311        38.00814        -2.55957
O         46.55913        21.03809        -0.28330
O         34.63154        41.94953        -2.46753
O         36.66830        29.65681         0.21363
O         43.94028        30.14935         0.31419
O         53.93835        46.51123        -1.01890
O         50.96402        41.20135         1.82284
O         52.78151        36.73562        -2.67461
O         45.56800        46.25083         2.15731
O         49.73886        52.46704         3.84115
O         56.85011        33.89123         0.68379
O         48.11674        43.67527         2.45106
O         48.17722        23.38638         1.78095
O         44.22037        52.28101         3.63412
O         24.73345        31.49340        -1.00424
O         34.27385        34.41348        -2.40434
O         54.97702        50.01013         2.79309
O         39.92046        39.64011         1.02713
O         30.29571        26.82494        -2.25110
O         27.72736        40.99503        -2.03988
O         32.25197        52.79086        -2.42133
O         46.90273        52.16657         3.92736
O         51.05862        43.61859         2.53770
O         55.28503        28.28875         1.69304
O         43.52926        37.64478        -2.69816
O         27.99505        29.06999        -1.52800
O         55.92200        35.35135        -2.76274
O         37.99185        57.20754         1.89527
O         40.35874        49.98940         2.45881
O         24.45841        39.80403        -1.68633
O         42.36348        53.94068         3.03616
O         45.42476        23.75683        -2.17039
H         46.34853        23.41320        -2.27335
O         23.14298        37.63189         2.31403
H         23.94674        37.10702         2.52045
O         43.21531        43.02234         1.21234
H         43.88357        42.92255         1.93866
O         37.58077        29.06838        -3.28366
H         38.01357        28.37118        -3.82779
O         38.59098        50.38898        -1.81517
H         38.54567        51.35511        -2.02415
O         58.14088        45.59707         0.60044
H         58.35691        46.42740         1.07755
O         59.83759        44.61891        -3.82677
H         58.90807        44.65778        -4.14675
O         50.10895        45.87050         3.14864
H         49.47095        45.20003         3.48315
O         41.70121        24.81680        -2.72575
H         41.79926        23.86148        -2.92146
O         41.68904        54.68121        -0.50459
H         42.60376        54.99557        -0.72232
O         37.90927        51.99360         2.30957
H         38.55749        51.77432         3.02420
O         39.92640        42.07618         1.02058
H         39.47473        41.30458         1.45869
O         44.83484        43.01816        -2.07017
H         45.01908        42.28157        -2.69064
O         45.65200        32.90995        -3.11004
H         44.83729        32.60372        -3.56298
O         55.12571        37.04356         0.35766
H         55.09789        37.88772         0.85901
O         46.98568        48.05052        -0.70570
H         46.17865        48.28250        -1.22903
O         37.64834        43.94697         0.96384
H         38.26066        44.52447         1.48777
O         42.56517        42.23666        -2.64397
H         42.86879        41.53571        -3.26590
O         27.65530        48.95175        -1.79975
H         28.46335        49.23708        -2.27607
O         43.15768        44.88224        -1.94910
H         43.01026        44.06743        -2.49352
O         51.60312        30.06860         1.66213
H         50.67858        30.05156         2.01033
O         33.32410        44.40058         1.07374
H         32.50754        44.40592         1.61850
O         59.31375        34.30207         1.17562
H         58.42967        34.45990         1.58208
O         55.37695        24.13883        -1.20028
H         56.15259        23.54840        -1.31341
O         46.41065        37.66136         0.99461
H         46.46061        36.69078         1.13935
O         30.67145        29.47922        -2.81465
H         30.54829        28.53749        -3.09039
O         32.16669        34.26210         1.00715
H         31.50414        33.97661         1.68592
O         48.13610        23.79584        -1.84162
H         48.40633        24.53075        -2.43343
O         41.42375        30.87841         0.36674
H         42.28020        30.55992         0.75341
O         23.80915        33.85503         2.48159
H         24.69827        33.87210         2.91068
H         22.82302        23.40420         0.88635
H         20.70355        24.62986         0.75323
H         20.66291        27.08917         0.52425
H         20.68818        29.01912         0.73324
H         20.67382        31.45539         0.74829
H         20.78562        33.42100        -0.15653
H         20.75069        35.85675         0.18885
H         20.67362        37.73615         0.94721
H         20.53738        40.04553         0.23844
H         20.71899        42.08923         1.02980
H         20.89830        44.47684         1.41767
H         20.82335        46.38906         1.06337
H         22.96660        50.08964         0.67377
H         20.87169        48.85133         1.06532
H         24.41709        22.48301         0.75143
H         24.54279        51.00007        -0.11236
H         26.40559        21.22943         0.20191
H         26.63677        52.22601        -0.15467
H         29.89524        19.04484        -1.23336
H         27.95977        20.22748        -0.23962
H         30.39863        54.29794        -1.01704
H         28.45140        53.20617        -0.02260
H         32.76144        17.59320        -1.12235
H         32.15156        55.26228        -1.22137
H         34.61798        16.83048         0.33085
H         34.19227        56.36356        -0.46418
H         37.82361        15.43629         2.73852
H         35.72430        16.38265         1.89031
H         37.99719        58.41471         0.10245
H         36.01169        57.18060        -0.75337
H         39.64658        14.64796         1.72430
H         39.47432        59.22437         1.44549
H         43.85761        14.93628         2.62483
H         41.89498        13.62104         1.86675
H         43.77148        59.07497         1.42054
H         41.68249        60.37575         1.58941
H         45.02548        16.00863         4.23083
H         45.43122        58.13962         1.21467
H         47.14830        17.17921         4.04176
H         47.28258        57.00819         2.24423
H         50.99350        19.05237         3.35249
H         48.82777        18.18942         3.98590
H         50.94106        54.77309         1.75268
H         48.90003        55.99332         2.11396
H         52.73695        19.64917         2.50156
H         52.63889        53.87024         2.44556
H         54.87805        20.76408         2.13051
H         54.77251        52.59551         2.77566
H         58.68257        22.70046         1.18070
H         56.57433        21.59739         1.66154
H         58.66037        50.54265         0.21394
H         57.11430        51.23754         2.05703
H         60.35118        23.59303         0.66331
H         59.48861        50.12997        -1.60909
H         62.46497        24.84767         0.41651
H         62.46129        27.28176         0.07317
H         62.42383        29.11699        -0.36317
H         62.41373        31.50854        -0.69354
H         62.42919        33.40891        -0.97852
H         62.42518        35.82070        -1.10169
H         62.41796        37.80804        -1.03804
H         62.38277        40.20673        -1.47457
H         62.19771        42.35029        -1.56548
H         61.94527        44.77131        -1.72562
H         61.45110        46.64754        -3.23448
H         61.31568        49.11919        -2.94299
