         314
 CSIRO Nanostructure Databank - Neutral Graphene Oxide Data Set
C         30.41583        57.01757         0.30753
C         30.29064        58.48013         0.35095
C         29.22016        59.12465         1.10722
C         30.42907        61.25501         1.20081
C         29.26768        60.47097         1.39812
C         32.97778        52.85980        -0.29257
C         32.92209        54.25546        -0.11997
C         31.68397        54.93707        -0.04274
C         32.86426        57.10471        -0.20825
C         31.60018        56.35457         0.02016
C         32.85584        58.62290        -0.11460
C         31.56799        59.33561         0.12836
C         32.86145        61.35916         0.77475
C         31.62480        60.68499         0.72768
C         35.54771        48.63077        -0.28708
C         35.48887        50.04037        -0.20372
C         34.27491        50.75518        -0.39472
C         35.41523        52.88600         0.05697
C         34.20815        52.15241        -0.24080
C         35.40454        54.30044         0.18167
C         34.16328        54.99988         0.04067
C         35.34319        57.14429         0.18340
C         34.13793        56.40227         0.05148
C         35.32305        58.58719         0.22281
C         34.10856        59.30790         0.23113
C         35.33779        61.41215         0.54029
C         34.10208        60.70990         0.50811
C         37.86456        44.35712         0.50268
C         37.85122        45.74070         0.51203
C         36.73871        46.49319         0.05809
C         37.88273        48.64822         0.46614
C         36.71546        47.91366         0.07336
C         37.87896        50.04858         0.43622
C         36.67521        50.76743         0.15487
C         37.76144        52.90599         0.78625
C         36.62378        52.18652         0.27996
C         37.82473        54.32037         0.76016
C         36.62574        55.01781         0.41211
C         37.78925        57.20301         0.27372
C         36.57985        56.45898         0.34045
C         37.76708        58.59470         0.15138
C         36.54806        59.30958         0.25084
C         37.80217        61.45811         0.21932
C         36.55896        60.75093         0.32456
C         40.28629        40.04655         0.71246
C         40.25398        41.47746         0.79131
C         39.05224        42.15959         0.86675
C         40.30199        44.35146         0.96422
C         38.98974        43.62398         1.18597
C         40.31943        45.71643         1.06415
C         39.03486        46.45898         1.07969
C         40.34791        48.72098         1.10023
C         39.06308        47.96453         1.03496
C         40.31601        50.09589         1.15358
C         39.02456        50.75996         0.95974
C         40.67960        53.19435         1.62575
C         38.79848        52.07621         1.31777
C         40.48169        54.64471         1.37850
C         39.02971        55.21126         1.20029
C         40.30661        57.13655        -0.19776
C         39.06118        56.42854         0.25936
C         40.20280        58.58806        -0.61455
C         38.95368        59.34427        -0.31155
C         40.23222        61.49776        -0.27166
C         39.00167        60.81645        -0.11746
C         42.50661        35.52772         0.75331
C         42.28818        36.91944         0.99146
C         41.32001        37.82705         0.59147
C         42.72760        39.95666         0.63388
C         41.46338        39.26911         0.72711
C         42.80610        41.46474         0.75555
C         41.50528        42.21702         0.76113
C         42.75445        44.35561         0.52872
C         41.52827        43.60110         0.78147
C         42.79162        45.71977         0.63004
C         41.60357        46.45657         1.11626
C         42.84121        48.66151         0.59482
C         41.63640        47.96678         1.15193
C         42.87011        50.14462         0.77254
C         41.60947        50.87718         1.23539
C         42.99165        53.04282         0.93685
C         41.66416        52.38425         1.13901
C         43.01304        54.56382         0.91189
C         41.72614        55.36021         0.93149
C         42.79537        57.27058        -0.25485
C         41.64971        56.61991         0.15289
C         42.76599        58.66275        -0.77562
C         41.45986        59.38628        -0.82635
C         42.68057        61.54276        -0.63613
C         41.46070        60.85416        -0.58838
C         45.31854        33.04180         1.33446
C         44.09001        33.60234         0.95969
C         44.96743        35.80275         0.37365
C         43.82053        34.99495         0.74209
C         45.22276        37.16171         0.44596
C         44.18195        38.00000         0.91433
C         45.12673        39.91876        -0.24624
C         43.96572        39.30303         0.45543
C         45.06948        41.38408        -0.53170
C         43.81166        42.12991        -0.17916
C         45.16921        44.28506        -0.34947
C         43.87445        43.61552        -0.10266
C         45.24602        45.74879        -0.13888
C         44.03624        46.48963         0.35147
C         45.01964        48.65807        -0.60441
C         43.92988        47.96306         0.15010
C         45.06876        50.16471        -0.54310
C         44.02474        50.91313         0.22179
C         45.47643        52.94036         0.18487
C         44.11380        52.26898         0.34791
C         45.43072        54.47269         0.00082
C         44.22130        55.27990         0.37627
C         45.22974        57.33127        -0.57725
C         44.08336        56.64493        -0.17373
C         45.21983        58.76927        -0.74625
C         44.00532        59.45981        -0.70269
C         45.18947        61.58806        -0.78480
C         43.96086        60.88726        -0.74675
C         46.59494        33.64707         1.41151
C         47.87766        35.80597         0.88424
C         46.89320        34.82710         0.70081
C         47.77821        37.15176         0.39273
C         46.48530        37.74115        -0.19218
C         47.59378        40.02751        -0.12925
C         46.45011        39.26205        -0.12008
C         47.53320        41.47154        -0.33822
C         46.34194        42.12882        -0.57381
C         47.51705        44.25204        -1.25041
C         46.30031        43.58149        -0.65518
C         47.50719        45.76959        -1.14690
C         46.39321        46.45090        -0.76521
C         47.48734        48.63185        -1.53779
C         46.25127        47.89453        -1.07544
C         47.46244        50.13048        -1.52834
C         46.31866        50.86460        -0.93403
C         47.60295        52.93062        -1.16938
C         46.39381        52.23832        -0.81496
C         47.54543        54.36517        -1.45445
C         46.36741        55.14469        -0.94971
C         47.59492        57.31028        -1.19849
C         46.44798        56.62372        -0.85971
C         47.65945        58.75502        -1.08568
C         46.44237        59.47675        -0.90458
C         47.70156        61.57019        -0.85163
C         46.44008        60.90935        -0.86740
C         48.89803        37.96678         0.42696
C         50.06611        40.08762         0.09855
C         48.88960        39.37288         0.10606
C         50.09241        41.55592         0.02728
C         48.76623        42.28581        -0.17799
C         50.00415        44.30177        -0.92354
C         48.81309        43.64557        -0.75173
C         50.02966        45.65797        -1.54991
C         48.73445        46.45716        -1.64083
C         50.02259        48.62785        -1.62833
C         48.81506        47.94191        -1.59577
C         50.07442        50.07720        -1.48404
C         48.80429        50.83075        -1.53918
C         50.05196        52.98649        -1.31350
C         48.82458        52.27259        -1.26929
C         50.09358        54.36615        -1.54707
C         48.81160        55.07578        -1.79832
C         50.08809        57.25560        -1.57330
C         48.79360        56.59364        -1.66349
C         50.14435        58.64357        -1.05697
C         48.88792        59.43563        -1.09658
C         50.17916        61.50648        -0.63359
C         48.91988        60.85393        -0.88721
C         51.30794        42.29128        -0.29960
C         52.49107        44.38822        -0.70609
C         51.27569        43.64145        -0.62721
C         52.53381        45.74168        -1.05624
C         51.33101        46.40189        -1.60835
C         52.60294        48.66421        -1.44156
C         51.33655        47.92177        -1.71705
C         52.53474        50.07644        -1.41811
C         51.26460        50.76854        -1.36054
C         52.57812        53.03484        -1.19486
C         51.30041        52.24174        -0.95339
C         52.60233        54.44277        -1.31020
C         51.32485        55.08411        -1.62156
C         53.03479        57.50582        -1.28311
C         51.19314        56.48444        -1.90443
C         52.76133        58.69472        -0.66842
C         51.41234        59.33553        -0.64747
C         52.56276        61.43268         0.03192
C         51.37981        60.81288        -0.44578
C         53.70114        46.49951        -0.89392
C         55.01393        48.48966        -0.64348
C         53.79041        47.90658        -1.09259
C         55.40195        49.80560        -0.93693
C         53.69157        50.90708        -1.50151
C         55.04276        52.88926        -0.78896
C         53.78969        52.27886        -1.15015
C         55.03594        54.30859        -0.58286
C         53.87639        55.14094        -0.99117
C         55.25670        57.21653        -0.35828
C         54.01256        56.53074        -0.86701
C         55.03857        58.55320         0.32483
C         53.67074        59.18386         0.42729
C         54.85413        61.33111         0.92906
C         53.71413        60.70679         0.43265
C         56.23053        50.67842        -0.22936
C         57.27552        52.77458         0.27161
C         56.17810        52.10697        -0.32838
C         57.27883        54.15112         0.48344
C         56.14241        54.89981         0.07131
C         57.26574        56.95533         1.17381
C         56.09975        56.30986         0.48269
C         57.35365        58.43944         1.15570
C         56.12604        59.17626         0.87582
C         57.20025        61.24359         1.64945
C         56.06542        60.60379         1.22123
C         58.43919        54.81122         1.06779
C         59.75960        56.82699         1.78502
C         58.47822        56.14065         1.36120
C         59.57745        58.27943         2.18446
C         58.46492        59.06079         1.66717
C         59.37023        61.04668         2.89901
C         58.54539        60.57273         1.72510
C         60.46430        58.86892         3.04401
C         60.30144        60.24500         3.46115
O         39.26663        58.87661        -1.68930
O         32.90589        57.93555        -1.41023
O         50.60617        58.62888         0.40220
O         49.34073        42.18512         1.15925
O         52.29372        57.16253        -2.41632
O         43.30757        42.89018        -1.29582
O         43.31470        53.84951         2.12757
O         39.58453        56.18214        -1.07699
O         38.74011        47.22193         2.29260
O         51.52139        47.05260        -2.89354
O         56.06940        56.50047         1.92316
O         41.21420        55.51312         2.30662
O         44.45658        49.45700        -1.69474
O         54.81080        50.35161        -2.10524
O         48.01838        50.62851        -2.78095
O         39.60034        52.63239         2.30635
O         49.30962        45.78415        -2.81772
O         43.30204        37.47194         1.84091
O         44.83691        40.41548        -1.60547
O         30.59897        59.17608        -0.91864
O         46.20860        52.64917         1.34275
O         45.94696        35.08689        -0.32763
O         46.52013        48.10112        -2.50181
O         46.38036        54.65243        -2.32022
O         45.12341        46.12514         1.29623
O         48.69075        55.90096        -2.98039
O         45.39021        55.19146         1.25825
O         41.84718        47.19588         2.37814
O         42.58190        50.39794         2.20253
O         42.09912        58.92438        -2.06467
O         47.41231        43.93032        -2.66734
H         48.08489        44.48304        -3.14033
O         56.07746        57.48871        -1.54827
H         55.52338        57.97371        -2.19622
O         51.26620        52.15486         0.52831
H         51.19033        53.06598         0.88535
O         60.70601        56.76507         0.69499
H         60.30962        57.21719        -0.07819
O         53.12527        58.76423         1.71198
H         52.14327        58.76677         1.63697
O         38.71689        43.69604         2.63459
H         38.72263        44.64512         2.88968
O         43.41184        41.65912         2.08451
H         42.76000        41.37793         2.76169
O         46.47900        37.42688        -1.60789
H         46.43329        36.44509        -1.67727
O         59.27701        61.02176         0.52483
H         60.20008        60.70317         0.61828
O         38.65086        55.73684         2.49119
H         38.94708        55.10690         3.18144
H         29.52745        56.42279         0.57030
H         28.37760        58.51216         1.45999
H         30.44028        62.29240         1.56443
H         28.40959        60.93658         1.90410
H         32.04389        52.29863        -0.44637
H         30.75380        54.34964        -0.03686
H         32.87537        62.41656         1.07966
H         34.64524        48.07115        -0.57371
H         33.35651        50.19500        -0.62594
H         35.32696        62.50233         0.68541
H         36.99479        43.79964         0.12385
H         35.84690        45.95342        -0.29290
H         37.79633        62.55048         0.35282
H         39.31963        39.52071         0.68728
H         38.10689        41.59589         0.85352
H         40.24547        62.58695        -0.11116
H         41.65380        34.84200         0.63897
H         40.39768        37.45766         0.11920
H         42.66940        62.63771        -0.52188
H         45.25400        32.02235         1.74983
H         43.20784        32.95513         1.08906
H         45.18103        62.68822        -0.76299
H         47.35074        33.19888         2.07210
H         48.75382        35.56032         1.50509
H         47.73066        62.66426        -0.73558
H         49.85675        37.53350         0.75399
H         51.02323        39.55795         0.22332
H         50.16744        62.59335        -0.45653
H         52.27508        41.76882        -0.25356
H         53.42268        43.89747        -0.38726
H         52.56710        62.52835         0.15160
H         54.59793        45.98293        -0.51990
H         55.65259        47.88396         0.01675
H         54.87022        62.42807         1.03232
H         56.92472        50.25471         0.51181
H         58.13321        52.17520         0.61078
H         57.17232        62.32875         1.83668
H         59.34022        54.19752         1.22059
H         60.22719        56.26366         2.63290
H         59.27665        62.09897         3.20618
H         61.28859        58.28128         3.47281
H         60.95328        60.62608         4.26090
