         424
 CSIRO Nanostructure Databank - Neutral Graphene Oxide Data Set
C          1.37077         3.54866        -0.66465
C          0.29184         4.11590        -0.04137
C          1.18917         6.38734        -0.28949
C          0.23001         5.52654         0.19208
C          1.14476         7.81230        -0.04072
C         -0.00096         8.46706         0.34426
C          1.08301        10.66845         0.43004
C         -0.00022         9.86110         0.67383
C          1.10770        12.07646         0.78461
C         -0.08526        12.78592         1.03178
C          1.13835        14.87960         1.31603
C         -0.07157        14.15120         1.27150
C          1.14892        16.31997         1.43542
C         -0.05472        17.06235         1.55642
C          1.15772        19.18004         1.50001
C         -0.05121        18.44082         1.57858
C          1.16252        20.62070         1.47586
C         -0.04494        21.37420         1.44940
C          1.17857        23.48441         1.31186
C         -0.03941        22.74773         1.35378
C          1.19789        24.89297         1.09603
C         -0.01360        25.69838         0.99916
C          1.31182        27.44450        -0.11595
C          0.02125        26.95893         0.50513
C          1.32211        28.87443        -0.64387
C          0.72566        29.17951        -1.88700
C          1.80667        31.38352        -1.93023
C          0.88446        30.43908        -2.45276
C          1.96137        32.71459        -2.46674
C          1.11983        33.20259        -3.49565
C          2.08284        35.42207        -3.27621
C          1.16134        34.53017        -3.87570
C          2.10410        36.81169        -3.67269
C          3.61654         3.80531        -1.61183
C          2.45931         4.36234        -1.13356
C          3.56076         6.65089        -1.20137
C          2.25935         5.85974        -1.22022
C          3.55172         7.99005        -0.85538
C          2.44337         8.59460        -0.03030
C          3.55658        10.80319        -0.05500
C          2.24897        10.09477        -0.34932
C          3.56749        12.05361         0.59754
C          2.35491        12.76155         0.89217
C          3.59949        14.89563         1.26711
C          2.37515        14.16848         1.19509
C          3.61909        16.31411         1.30241
C          2.37979        17.03288         1.38477
C          3.63259        19.16933         1.41711
C          2.38785        18.46143         1.43408
C          3.63596        20.59428         1.44922
C          2.40228        21.32098         1.45321
C          3.65061        23.44839         1.47004
C          2.41378        22.75383         1.41212
C          3.66139        24.88917         1.39064
C          2.44529        25.58478         1.06686
C          3.67518        27.68574         1.02091
C          2.48223        26.97598         0.76091
C          3.73316        29.10571         1.02797
C          2.09357        29.88979        -0.08016
C          3.71119        31.80646        -0.33277
C          2.55512        31.03044        -0.77248
C          3.81268        33.10151        -0.85358
C          2.90735        33.59046        -1.85443
C          4.00739        35.83105        -1.76671
C          2.98071        34.94623        -2.29536
C          4.03955        37.21574        -2.24167
C          3.02393        37.67158        -3.16077
C          5.97156         3.97488        -2.31727
C          4.77336         4.61085        -1.93624
C          5.95376         6.82828        -2.05877
C          4.73236         6.01380        -1.72238
C          6.00015         8.15856        -1.36582
C          4.69628         8.90769        -1.26433
C          6.00022        10.84405        -0.25482
C          4.75901        10.18339        -0.44251
C          6.08556        12.08448         0.40443
C          4.85370        12.64389         0.95121
C          6.12717        14.90590         1.15618
C          4.87044        14.18137         1.33231
C          6.10892        16.31969         1.21548
C          4.86305        17.02758         1.30820
C          6.11219        19.16559         1.37570
C          4.86768        18.45112         1.36972
C          6.11714        20.58873         1.42978
C          4.87826        21.30041         1.45655
C          6.13304        23.41557         1.53567
C          4.87970        22.72222         1.50834
C          6.10180        24.86724         1.83923
C          4.86185        25.60085         1.53011
C          6.09512        27.76901         1.44099
C          4.90083        27.01148         1.35411
C          6.12690        29.14458         1.08406
C          4.89415        29.84857         0.82017
C          6.09938        31.93856         0.40819
C          4.86918        31.23790         0.39316
C          6.14901        33.33940         0.03614
C          4.81851        34.02366        -0.21423
C          6.04778        36.25476        -0.34195
C          4.94553        35.36997        -0.87529
C          6.18041        37.55497        -1.10038
C          5.06178        38.05147        -1.85950
C          8.44608         3.95816        -2.33631
C          7.22048         4.66141        -2.24239
C          8.44881         6.68823        -1.58424
C          7.23518         6.05276        -1.95167
C          8.44515         8.05200        -1.17179
C          7.21093         8.76055        -1.08528
C          8.53767        10.88822        -0.47916
C          7.23333        10.21193        -0.76293
C          8.54349        12.19465         0.19233
C          7.32722        12.80386         0.55720
C          8.58002        14.89700         1.00260
C          7.34441        14.19308         0.95798
C          8.58192        16.32093         1.18150
C          7.34886        17.03470         1.22381
C          8.58965        19.17141         1.35611
C          7.34983        18.45733         1.32222
C          8.58375        20.58188         1.40948
C          7.36262        21.30147         1.41912
C          8.62912        23.51268         1.26502
C          7.34094        22.74017         1.46244
C          8.64045        24.94523         1.76254
C          7.36669        25.63675         2.06162
C          8.59256        27.83400         1.69166
C          7.30888        27.17434         2.12107
C          8.59832        29.16956         1.31628
C          7.35526        29.86679         1.04076
C          8.58440        31.96122         0.64530
C          7.35058        31.25541         0.72083
C          8.57697        33.47055         0.64313
C          7.32173        34.07157         0.04917
C          8.56469        36.14953        -0.40785
C          7.36424        35.48754        -0.27220
C          8.63349        37.65803        -0.57572
C          7.34760        38.24404        -1.08603
C         10.91297         3.89103        -2.20930
C          9.67179         4.58201        -2.02994
C         10.90525         6.56411        -1.16466
C          9.67240         5.94014        -1.58007
C         10.93275         7.86887        -0.75094
C          9.65671         8.61131        -0.47713
C         10.98686        10.75197        -0.31692
C          9.79312        10.11602        -0.50616
C         11.02345        12.16368         0.05381
C          9.79551        12.84326         0.36232
C         11.06697        14.86586         0.92108
C          9.82121        14.20319         0.78537
C         11.08204        16.24762         1.51461
C          9.81306        17.03073         1.26977
C         11.10017        19.11638         1.48528
C          9.83455        18.43139         1.35181
C         11.09363        20.56789         1.89932
C          9.90129        21.31846         1.29536
C         11.12365        23.49130         1.59883
C          9.81944        22.75184         1.86314
C         11.09926        24.91982         1.58328
C          9.84618        25.61510         1.79450
C         11.12922        27.84104         1.82123
C          9.83318        27.09247         1.98680
C         11.05179        29.22250         1.32132
C          9.85307        29.87820         1.11032
C         11.05085        32.00373         0.57075
C          9.83323        31.29032         0.75454
C         11.07006        33.38852         0.23331
C          9.84999        34.09903         0.12783
C         11.04418        36.04623        -0.75534
C          9.82934        35.42875        -0.33345
C         11.03704        37.35388        -1.34801
C          9.73600        38.07721        -1.56073
C         13.36025         3.84974        -2.17784
C         12.13813         4.46258        -1.85810
C         13.42864         6.49302        -1.07076
C         12.14071         5.70675        -0.99973
C         13.45707         7.82173        -0.65351
C         12.19102         8.52584        -0.23162
C         13.53282        10.66454        -0.19396
C         12.25982         9.99955        -0.65968
C         13.53343        12.17431        -0.21972
C         12.24170        12.83779         0.20794
C         13.54691        14.91729         0.76980
C         12.27331        14.19864         0.64373
C         13.54999        16.33363         1.03260
C         12.34149        17.02013         1.22906
C         13.59167        19.15298         1.74957
C         12.30640        18.43262         1.42027
C         13.55077        20.64201         1.48950
C         12.36532        21.32805         1.55360
C         13.53779        23.48716         0.93207
C         12.30905        22.77171         1.44190
C         13.55419        24.96038         1.23693
C         12.34309        25.64866         1.46398
C         13.57867        27.76807         1.48071
C         12.37468        27.07544         1.56884
C         13.55604        29.25508         1.54597
C         12.32469        29.85719         0.96318
C         13.62066        32.05395         0.64951
C         12.34142        31.29921         0.58240
C         13.58625        33.39122         0.11799
C         12.32071        34.03155        -0.09124
C         13.50739        35.96923        -1.03369
C         12.28604        35.35023        -0.61867
C         13.44581        37.22609        -1.75674
C         12.19158        37.90127        -1.85968
C         15.82266         3.86812        -2.28613
C         14.61161         4.48699        -1.94238
C         15.87494         6.50259        -1.22668
C         14.63601         5.83305        -1.41448
C         15.89303         7.82631        -0.71379
C         14.69182         8.51225        -0.49899
C         16.00478        10.59001         0.02358
C         14.70115         9.94615        -0.17750
C         16.01041        12.00329         0.48921
C         14.72769        12.76484         0.50125
C         16.02047        14.91544         0.66786
C         14.75979        14.24130         0.62123
C         16.02572        16.34751         0.79647
C         14.80850        17.04977         1.02030
C         16.02140        19.17172         0.99799
C         14.82968        18.46146         1.19790
C         15.97014        20.66747         0.77824
C         14.88175        21.34724         1.60173
C         16.02939        23.49849         1.15488
C         14.83926        22.81772         1.27778
C         16.04381        24.94856         1.12207
C         14.79317        25.65140         1.20847
C         16.03860        27.78787         1.36190
C         14.80439        27.07055         1.32556
C         16.04596        29.19732         1.61783
C         14.81756        30.05524         1.61631
C         16.02961        32.26570         0.90702
C         14.81562        31.48291         1.08249
C         16.08314        33.46024         0.11053
C         14.80049        34.05910        -0.21877
C         16.02227        36.08809        -1.12025
C         14.74119        35.33296        -0.82585
C         15.82187        37.00705        -2.31503
C         14.56593        37.66430        -2.45479
C         18.28047         3.92764        -2.58642
C         17.06157         4.54061        -2.14461
C         18.34478         6.56383        -1.52700
C         17.10066         5.85299        -1.60170
C         18.40463         7.87555        -0.98205
C         17.19997         8.40530        -0.23720
C         18.49883        10.55580         0.27009
C         17.17758         9.91019        -0.09884
C         18.46781        12.07395         0.23045
C         17.28021        12.76290         0.44734
C         18.48569        14.92366         0.48280
C         17.24675        14.20061         0.53587
C         18.49218        16.35115         0.58585
C         17.25817        17.06472         0.74641
C         18.49818        19.21840         0.73368
C         17.25152        18.48742         0.79983
C         18.51395        20.65260         0.84476
C         17.29425        21.38134         0.96027
C         18.53069        23.50485         1.08125
C         17.29729        22.77063         1.10411
C         18.52579        24.93610         1.13979
C         17.26542        25.64888         1.17976
C         18.51977        27.78238         1.38521
C         17.27220        27.07793         1.31289
C         18.52165        29.18862         1.62873
C         17.26150        29.75797         1.94366
C         18.51708        32.25522         0.99907
C         17.25352        31.85371         1.45552
C         18.56021        33.49911         0.26325
C         17.33003        34.08959        -0.19622
C         18.44129        36.00785        -1.73610
C         17.23519        35.15604        -1.31160
C         18.20908        36.88575        -2.83862
C         16.86546        37.29292        -3.16031
C         19.46699         4.61330        -2.54507
C         20.74153         6.67629        -2.01049
C         19.52586         5.94739        -2.03523
C         20.78071         7.96231        -1.51781
C         19.61743         8.59296        -0.97859
C         20.82279        10.72094        -0.59285
C         19.67785         9.95565        -0.47418
C         20.86703        12.08359        -0.22839
C         19.70847        12.78716         0.11909
C         20.91775        14.96245         0.26348
C         19.71129        14.22544         0.29575
C         20.92323        16.33874         0.38107
C         19.71934        17.06690         0.52904
C         20.93956        19.24451         0.63541
C         19.71881        18.51244         0.62736
C         20.95642        20.61392         0.75871
C         19.75069        21.35803         0.86757
C         20.97066        23.54050         0.95995
C         19.75916        22.79656         0.97437
C         20.96561        24.91506         1.04688
C         19.75191        25.64755         1.13584
C         20.93279        27.87514         1.26771
C         19.75809        27.09607         1.24953
C         20.90002        29.26741         1.34759
C         19.69982        29.99338         1.51994
C         20.91814        32.13405         1.25637
C         19.69718        31.46476         1.33828
C         20.97369        33.46271         0.81399
C         19.86579        34.10450         0.26526
C         20.80663        36.69375        -1.87722
C         19.75551        35.98983        -1.25322
C         20.57321        37.42582        -3.03740
C         19.26629        37.53977        -3.50373
O          4.93702        13.12126         2.32565
O         15.19378        12.11525         1.72617
O          2.52113        29.76102         1.24808
O         17.23896        31.00616         2.56259
O         12.43132        30.21716        -0.45724
O          7.89850        10.97755        -1.83444
O         13.97178        29.86065         2.81405
O          6.63572        25.07570         3.22125
O         10.56417        27.60291         3.15691
O         20.13655        35.41525        -0.05310
O          1.72291         6.09418        -2.56967
H          2.37894         5.74063        -3.20781
O          7.17576        27.54666         3.52754
H          6.79440        26.76038         3.98793
O         13.46557        23.38018        -0.54705
H         13.73999        22.46557        -0.78260
O          8.81276        23.60764        -0.19038
H          7.98518        23.95719        -0.58239
O         16.30401        36.91953         0.03542
H         15.54418        37.52490         0.16476
O          1.91867        10.26131        -1.74375
H          2.70335         9.97930        -2.28138
O          9.29043        37.82404        -2.90827
H          9.25543        36.85436        -3.04147
O         15.57672        20.85168        -0.61920
H         16.28657        20.47879        -1.18334
O         18.72267        10.20476         1.69415
H         18.04876        10.68904         2.21989
O          4.36254         9.33773        -2.63925
H          4.65478         8.59870        -3.23825
O         11.03703        20.52822         3.35924
H         11.83995        20.03186         3.65221
O          8.97336        38.22512         0.71476
H          8.27225        37.95694         1.34624
O         13.68805        19.03702         3.22394
H         14.46884        19.59072         3.48272
O          5.78341         7.17574        -3.53262
H          6.64796         7.53045        -3.83665
O          5.71537        36.62102         1.03436
H          5.30661        35.81999         1.44944
O          1.48032        26.65890        -1.34908
H          1.38953        25.71080        -1.11162
O         12.06531         5.23406         0.39754
H         12.75707         4.54689         0.50780
O          9.55330        22.72129         3.27421
H         10.15228        22.05710         3.69145
O         12.12301         8.48743         1.22720
H         12.27958         7.55518         1.49650
O         11.11045        16.03002         2.98059
H         11.27777        16.90115         3.40078
O          8.53021        33.84017         2.07721
H          7.72124        33.43336         2.45601
O         12.34033         9.99417        -2.11523
H         12.66537        10.88379        -2.38782
O         15.29573        21.22530         3.00875
H         14.82542        21.91685         3.52111
O         13.70175        12.52327        -1.64711
H         13.52054        13.48336        -1.74214
O          9.38906         8.36394         0.96565
H         10.25782         8.49380         1.42679
O         10.22856        21.36421        -0.11618
H          9.70610        22.09521        -0.52753
O          4.28924        34.29333         1.15326
H          3.35441        34.57455         1.05115
O          2.92052         8.55699         1.35536
H          3.00847         7.61748         1.62099
O         16.91415        34.36338        -2.49367
H         17.67728        33.78196        -2.69146
O         17.35465         7.89408         1.13661
H         18.04219         8.46065         1.56982
H          1.44966         2.45570        -0.76241
H         -0.51799         3.48189         0.34597
H         -0.58688         5.91029         0.82064
H         -0.95112         7.91868         0.42359
H         -0.90133        10.26820         1.15588
H         -1.05227        12.26871         0.96868
H         -1.03274        14.66662         1.39613
H         -1.01929        16.54284         1.62355
H         -1.01257        18.96420         1.66230
H         -1.01336        20.85745         1.47317
H         -0.99852        23.28017         1.29793
H         -0.96120        25.28296         1.37178
H         -0.88866        27.57334         0.45131
H          0.10279        28.42697        -2.38871
H          0.32927        30.67615        -3.37004
H          0.39550        32.53127        -3.97557
H          0.47800        34.90502        -4.65105
H          1.35803        37.15747        -4.40278
H          3.71753         2.70982        -1.65907
H          3.04099        38.72593        -3.47325
H          5.97121         2.88790        -2.48609
H          5.11330        39.07481        -2.26186
H          8.43761         2.89492        -2.61923
H          7.40510        39.21814        -1.59722
H         10.89977         2.91105        -2.71074
H          9.89285        39.18064        -1.47649
H         13.35192         2.87722        -2.69367
H         12.15308        38.87154        -2.37658
H         15.80938         2.85270        -2.70961
H         14.47432        38.50227        -3.16238
H         18.24252         2.90448        -2.98785
H         16.71836        37.99891        -3.99230
H         20.39304         4.14495        -2.90940
H         21.65814         6.20602        -2.39509
H         21.74226         8.49175        -1.51783
H         21.73533        10.29396        -1.03020
H         21.82502        12.60797        -0.33658
H         21.87830        14.44456         0.14542
H         21.88843        16.85948         0.34593
H         21.89864        18.71715         0.55695
H         21.92631        21.12770         0.77191
H         21.93598        23.02368         0.88149
H         21.92591        25.44783         1.04057
H         21.91404        27.39213         1.16285
H         21.85847        29.79490         1.25422
H         21.85591        31.65160         1.55887
H         21.92712        34.00597         0.83920
H         21.81008        36.63999        -1.43565
H         21.39712        37.94619        -3.54390
H         19.03672        38.18586        -4.36248
