         276
 CSIRO Nanostructure Databank - Neutral Graphene Oxide Data Set
C        -11.16798         0.51025        -0.54612
C         -9.98628         1.35177        -0.08193
C         -8.68579         0.63697        -0.38907
C         -7.42307         1.39022        -0.15438
C         -6.28874         0.63588         0.52457
C         -4.96121         1.36634         0.52171
C         -3.67388         0.59221         0.34262
C         -2.35616         1.36048         0.29662
C         -1.32201         0.82123        -0.69264
C         -0.01160         1.56723        -0.60276
C          1.24910         0.77980        -0.67311
C          2.36801         1.27507         0.22906
C          3.75058         0.65592        -0.05652
C          4.86553         1.37725        -0.83498
C          6.23190         0.70412        -0.49154
C          7.48711         1.42768        -0.96815
C          8.75646         0.68257        -0.70163
C         10.04591         1.43241        -0.28672
C         10.75386         0.56249         0.74043
C         -9.89435         2.81367        -0.46641
C         -8.71680         3.53135        -0.23599
C         -7.46822         2.84448         0.05408
C         -6.25349         3.51553         0.24222
C         -5.01661         2.83356         0.37187
C         -3.76453         3.54000         0.39703
C         -2.55749         2.87047         0.24693
C         -1.30776         3.65547         0.27746
C         -0.02077         2.96717        -0.01709
C          1.18539         3.50662         0.74767
C          2.47685         2.78691         0.38006
C          3.70494         3.54088         0.01349
C          4.88624         2.88816        -0.64662
C          6.17532         3.64734        -0.65691
C          7.46706         2.92102        -0.94772
C          8.82498         3.64598        -0.70815
C          9.60706         2.77061         0.25448
C         -8.65239         4.96208        -0.39847
C         -7.51487         5.72785        -0.11532
C         -6.28782         5.00980         0.49759
C         -4.95527         5.68073         0.20888
C         -3.78509         5.00622         0.42638
C         -2.61220         5.75561         1.03291
C         -1.29636         4.98797         0.98248
C         -0.00410         5.74303         0.97007
C          1.24630         5.02439         0.60992
C          2.36957         5.71668         0.31124
C          3.63520         5.03698        -0.06384
C          4.94533         5.73259         0.11354
C          6.22839         4.90418         0.21194
C          7.47341         5.73273        -0.04283
C          8.63922         5.11158        -0.31224
C         -7.50100         7.12657        -0.11658
C         -6.24085         7.88541        -0.19290
C         -4.92535         7.12377        -0.09595
C         -3.64391         7.88543         0.09313
C         -2.46129         7.19600         0.59745
C         -1.29912         7.91421         0.85141
C         -0.01399         7.22413         0.92370
C          1.16203         7.91472         0.74446
C          2.37630         7.22793         0.14898
C          3.65687         7.84868         0.71188
C          4.92372         7.06966         0.77973
C          6.27945         7.68782         1.09770
C          7.33907         7.25761         0.05874
C         -6.18667         9.32668         0.14528
C         -5.04343        10.01226         0.37582
C         -3.68993         9.42371         0.25905
C         -2.49828        10.05402         0.84324
C         -1.31798         9.36252         0.95144
C         -0.05017        10.04457         1.44296
C          1.23322         9.34678         1.00250
C          2.43083         9.99814         1.05851
C          3.73271         9.36304         0.60246
C          5.00692         9.88639         1.23280
C          6.14438         9.17925         1.33506
C        -11.12706        -0.83431        -0.65048
C         -9.82850        -1.62913        -0.70407
C         -8.72331        -0.83409        -0.05805
C         -7.48659        -1.52338         0.39948
C         -6.22099        -0.79780        -0.02430
C         -4.90976        -1.54495         0.07340
C         -3.73383        -0.84204        -0.07960
C         -2.56535        -1.46979        -0.76273
C         -1.31967        -0.65003        -1.01882
C         -0.05428        -1.43134        -1.46518
C          1.26626        -0.69882        -1.04454
C          2.52286        -1.48484        -0.77277
C          3.75550        -0.81608        -0.20396
C          4.99984        -1.56625        -0.59383
C          6.22445        -0.76357        -0.95477
C          7.55295        -1.36865        -1.13565
C          8.73834        -0.70921        -0.70727
C         10.01814        -1.50003        -0.43552
C         10.76276        -0.77407         0.67263
C         -9.80406        -3.07821        -0.23594
C         -8.70014        -3.71691         0.21990
C         -7.43768        -3.00514         0.66242
C         -6.15206        -3.67348         0.24649
C         -4.99591        -2.99354        -0.07073
C         -3.85033        -3.76112        -0.74421
C         -2.56880        -2.95256        -1.02131
C         -1.24243        -3.66890        -1.11366
C         -0.07247        -2.95551        -1.09147
C          1.23501        -3.69923        -1.20903
C          2.54991        -2.98748        -1.03937
C          3.89995        -3.74351        -0.88923
C          4.84867        -2.95607         0.05450
C          6.13274        -3.71104         0.43077
C          7.44053        -2.97955         0.72216
C          8.68636        -3.65788         0.24725
C          9.80497        -2.98406        -0.14550
C         -8.73699        -5.19524         0.57791
C         -7.39857        -5.91943         0.42764
C         -6.10071        -5.14807         0.60355
C         -4.91024        -5.84539        -0.01824
C         -3.57827        -5.09347        -0.04062
C         -2.51008        -5.90629        -0.77031
C         -1.28538        -5.17299        -1.26169
C         -0.00216        -5.97698        -1.35173
C          1.27286        -5.21686        -1.17099
C          2.39643        -5.83282        -0.33801
C          3.77929        -5.20644        -0.49554
C          4.92499        -5.87847        -0.19677
C          6.17313        -5.18257         0.23286
C          7.49803        -5.86234         0.23629
C          8.64399        -5.12828         0.24540
C         -7.38658        -7.26773         0.39222
C         -6.16384        -8.14779         0.20997
C         -4.90059        -7.33772        -0.03901
C         -3.58391        -7.97700         0.13811
C         -2.41703        -7.32623        -0.30732
C         -1.19610        -8.02035        -0.31321
C         -0.10182        -7.52433        -1.21724
C          1.33014        -8.20311        -1.05085
C          2.41113        -7.36422        -0.33445
C          3.69948        -8.10250        -0.18153
C          4.98949        -7.35563        -0.22420
C          6.26011        -8.09370         0.07186
C          7.52597        -7.35898         0.50398
C         -5.94009        -9.17947         1.29151
C         -4.72188        -9.72413         1.48342
C         -3.51744        -9.22461         0.81698
C         -2.29307        -9.88349         0.88037
C         -1.14360        -9.33906         0.23759
C          0.07152       -10.06406         0.22717
C          1.27312        -9.55618        -0.31292
C          2.46014       -10.23417        -0.10271
C          3.77544        -9.60539        -0.49099
C          4.96618       -10.20522         0.23009
C          6.09184        -9.51703         0.48265
O          0.90389        -5.71068        -2.47606
O          3.50988         3.08576         1.39579
O          4.29703         5.70345        -1.19349
O          2.29047        -0.82856        -2.07141
O          4.13052        -2.74310         1.27761
H          4.39763        -3.45788         1.90263
O          2.01437        -3.24454        -2.37273
O         -0.59734         3.85681        -1.01932
O          6.44021         0.69936         0.92826
H          5.71125         0.19661         1.37293
O          5.89166        -4.58825         1.59471
O         -1.68384         1.10485         1.56523
H         -2.35340         1.23595         2.27626
O          0.83956         1.58450        -1.79674
O          1.80425        -8.39886        -2.35892
O         -0.57061         5.15226         2.22741
O         -5.09474        -6.54621        -1.26724
O         -2.90645        -2.03462        -2.10268
O         -8.45204        -0.96952         1.35735
O          4.54108        -3.75472        -2.18269
H          3.82105        -3.79992        -2.85787
O          7.41228         2.19292        -2.21662
O         -7.90066         1.05368        -1.51867
O          7.43927        -1.98064         1.42646
O          7.71743        -7.54032         1.91788
H          7.12014        -6.92837         2.39657
O         -2.33366        -5.62798        -2.17387
O         -4.20579         0.85368         1.69751
O          4.04423         7.19836         1.96210
O          5.31327         3.62367        -1.82838
O          6.32618         4.42432         1.57459
H          6.53685         5.21145         2.14020
O          5.32917        -1.33244        -1.98313
O          2.84491        -7.84259         0.98978
O         -6.45500         5.14787         1.87358
O         -6.51241        -2.27647         2.75489
H         -6.95982        -1.38533         2.73260
O         -3.38758         8.78518        -1.01779
O          4.01250        -0.21260         1.10419
O         -4.40371        -4.10561        -2.02782
H         -4.17311        -3.38364        -2.65551
O         -3.56966        -3.71971         1.91139
H         -4.41900        -4.08945         2.29682
O         -6.40605        -8.90671        -1.00912
H         -6.21094        -8.30066        -1.75856
O          1.91156         0.78762         1.50725
H          2.53031         1.10958         2.19781
O         -2.98852        -4.89701         1.29555
O         -7.51329        -3.15397         2.18873
O         -1.72081         0.40167        -1.99340
O         -3.00258         5.85568         2.43762
H         -2.18240         5.72728         2.97145
O         -0.08737        -1.43749        -2.88845
H          0.80525        -1.71307        -3.20264
O        -10.08149         1.34581         1.37965
H        -10.89460         1.82859         1.63555
O          5.87725        -7.82053        -1.30870
O          3.91721        -9.83819        -1.90087
H          3.14841        -9.35336        -2.34313
O         -9.75864        -5.87770        -0.14462
H         -9.47427        -5.96193        -1.07759
O         -6.68442         0.58241         1.91920
H         -5.88135         0.73036         2.46803
O         -5.50382         7.43840        -1.40215
O          6.90813         7.75712        -1.20568
H          7.53692         7.46553        -1.89652
O          3.85538         9.68132        -0.81291
H          3.14580         9.17724        -1.28522
O         10.92865         1.56691        -1.41170
H         10.75305         2.45176        -1.81612
O         -9.48106        -1.68236        -2.12026
H        -10.21558        -2.11620        -2.60165
O          4.56448         1.13846        -2.21244
H          4.97487         1.86259        -2.73981
O          2.01610        -5.41457         1.01152
H          2.40300        -6.08458         1.62652
O         -0.07473        10.08205         2.88483
H         -0.08757         9.15895         3.21213
O         -5.82743        -5.18625         2.05057
H         -6.51391        -4.60870         2.47916
O         10.84909        -1.45889        -1.61673
H         10.30061        -1.69024        -2.39393
O          7.59299        -2.45576        -1.91912
H          6.67324        -2.58802        -2.28347
O          6.70366         7.09171         2.35691
H          5.98251         7.26924         3.00240
O          0.94760         3.17722         2.13076
H          1.74462         3.44582         2.63668
O          2.30580         7.51546        -1.27787
H          2.98803         6.94936        -1.71753
O          9.49510         3.72236        -1.99181
H          8.94336         3.22829        -2.64345
O         -0.58275        -7.99836        -2.48354
H          0.25766        -8.19411        -2.99977
O         -6.33310        -0.79243        -1.47805
H         -5.54619        -0.36453        -1.87626
H         11.32210        -1.37204         1.40737
H         11.31597         1.07426         1.53623
H          9.19895         2.75782         1.28120
H          9.55020         5.72231        -0.42808
H          8.33877         7.70078         0.33100
H          7.04360         9.67509         1.73549
H          5.02427        10.95676         1.49388
H          2.44775        11.06878         1.31742
H         -0.03590        11.10848         1.09938
H         -2.54713        11.11427         1.13566
H         -5.10811        11.06212         0.70192
H         -7.15135         9.83607         0.29599
H         -8.44889         7.68607        -0.05254
H         -9.51088         5.45606        -0.88511
H        -10.81623         3.36645        -0.70819
H        -12.14532         1.01641        -0.62451
H        -12.05801        -1.37656        -0.88896
H        -10.69150        -3.69672        -0.45819
H         -9.02199        -5.25229         1.66710
H         -8.35505        -7.79427         0.35744
H         -6.81432        -9.57660         1.82814
H         -4.59336       -10.55121         2.19835
H         -2.21599       -10.86191         1.37684
H          0.10908       -11.02126         0.77373
H          2.44230       -11.27361         0.26580
H          4.89687       -11.26068         0.53701
H          6.93082        -9.99267         1.01230
H          8.40880        -7.82368        -0.00397
H          9.61247        -5.65355         0.26373
H         10.66936        -3.60343        -0.44328
