         334
 CSIRO Nanostructure Databank - Neutral Graphene Oxide Data Set
C         30.32742        57.06572        -0.39451
C         30.33848        58.44827        -0.73423
C         29.18680        59.27910        -0.62701
C         30.51568        61.23378        -1.23183
C         29.28481        60.63364        -0.91207
C         32.84405        52.79996         0.11098
C         32.81911        54.20026        -0.04730
C         31.59565        54.92332        -0.00855
C         32.73207        56.93284        -0.78897
C         31.52098        56.30595        -0.34383
C         32.63295        58.16293        -1.41046
C         31.54799        59.04881        -1.21736
C         32.95854        61.20638        -1.37141
C         31.69947        60.47741        -1.35908
C         35.33106        48.57174         0.49921
C         35.30627        49.98656         0.44679
C         34.09001        50.68687         0.31875
C         35.31590        52.81778         0.17942
C         34.06630        52.09214         0.18947
C         35.29773        54.22447        -0.11888
C         34.08472        54.87655        -0.25734
C         35.31869        57.13901        -0.29554
C         34.04247        56.35076        -0.40040
C         35.41210        58.60173        -0.56542
C         34.51645        59.28975        -1.30611
C         35.39823        61.46957        -0.77023
C         34.25441        60.71327        -1.18429
C         37.77303        44.31316         0.86049
C         37.76442        45.70267         0.79800
C         36.55662        46.44551         0.65109
C         37.77950        48.59793         0.76191
C         36.53836        47.85642         0.63813
C         37.77080        50.01868         0.74896
C         36.53820        50.73182         0.57107
C         37.73503        52.95986         0.85685
C         36.51869        52.14161         0.47594
C         37.81139        54.26590         0.11639
C         36.60396        54.91832        -0.47217
C         37.78890        57.14156        -0.11688
C         36.61969        56.42296        -0.25297
C         37.80076        58.60739         0.00017
C         36.48617        59.35906         0.15827
C         37.77194        61.48764        -0.12195
C         36.54834        60.81219        -0.30769
C         40.28278        40.02909         0.33727
C         40.23775        41.45161         0.63475
C         39.05576        42.11467         0.82806
C         40.27494        44.30202         0.90119
C         39.01205        43.55616         1.26276
C         40.24023        45.74606         0.88104
C         39.02074        46.44621         0.87139
C         40.23467        48.60513         0.93064
C         39.00433        47.87920         0.85926
C         40.23023        50.03285         0.91910
C         39.00717        50.75039         0.83000
C         40.24536        52.87344         0.79087
C         39.03134        52.17848         0.79188
C         40.22508        54.38868         0.78135
C         39.12472        54.92822        -0.14902
C         40.25834        57.14255        -0.03118
C         39.08171        56.45413        -0.07023
C         40.30809        58.64410        -0.18732
C         38.97090        59.31762         0.01748
C         40.20369        61.47208         0.20274
C         38.97511        60.78053         0.08827
C         42.58677        35.84583        -0.86778
C         42.68032        37.29784        -0.43625
C         41.51101        37.94337        -0.12086
C         42.79145        40.00746         0.47983
C         41.46127        39.34668         0.21170
C         42.72470        41.51103         0.52681
C         41.50712        42.17859         0.66680
C         42.74860        44.34098         0.42703
C         41.46020        43.61641         0.72525
C         42.71230        45.79564         0.81288
C         41.48320        46.47446         0.88647
C         42.70426        48.60728         1.04467
C         41.46764        47.89804         0.97178
C         42.68538        50.03106         0.98638
C         41.47406        50.74389         0.93360
C         42.72544        52.89236         0.83863
C         41.48301        52.17792         0.83965
C         42.72950        54.32343         0.68150
C         41.54470        55.00644         0.42916
C         42.64606        57.15811         0.88997
C         41.59298        56.42590        -0.04681
C         42.67770        58.62094         0.67029
C         41.36040        59.33215         0.74160
C         42.65789        61.45910         0.24470
C         41.43085        60.80181         0.37368
C         45.16226        33.30176        -2.08400
C         43.97078        33.84010        -1.67893
C         45.20281        35.97300        -1.05508
C         43.92647        35.14652        -1.01158
C         45.09162        37.44433        -0.97876
C         43.92600        38.04054        -0.58816
C         45.20879        40.21787        -0.26439
C         43.85436        39.55486        -0.52495
C         45.20193        41.52436         0.41138
C         43.98641        42.18247         0.61598
C         45.21548        44.39575         0.76433
C         43.94797        43.62894         1.05763
C         45.19586        45.77258         0.85413
C         43.93192        46.49253         0.97167
C         45.19638        48.60087         1.52395
C         43.92578        47.88747         1.13403
C         45.25244        50.01113         0.97668
C         43.94800        50.74889         0.78247
C         45.20176        52.90094         0.93467
C         43.96510        52.21137         0.85841
C         45.18773        54.32167         0.94027
C         43.99164        55.02602         0.76839
C         45.15260        57.16517         0.49321
C         43.97768        56.46668         0.71746
C         45.15218        58.58351         0.20571
C         43.82444        59.25540        -0.06394
C         45.10483        61.41872         0.00948
C         43.89015        60.75939         0.13233
C         46.38222        34.03886        -2.04147
C         47.57995        36.18139        -1.72944
C         46.40648        35.37523        -1.66159
C         47.56228        37.55751        -1.50502
C         46.23049        38.28235        -1.50315
C         47.58306        40.36399        -1.26439
C         46.30104        39.66273        -0.88600
C         47.71271        41.60846         0.77379
C         46.45062        42.25202         0.66224
C         47.67169        44.38127         0.46318
C         46.45467        43.67653         0.61985
C         47.67573        45.87739         0.26929
C         46.42947        46.54226         0.79838
C         47.72761        48.64776         0.96153
C         46.44774        47.86122         1.12096
C         47.69338        50.02944         1.63903
C         46.46088        50.79649         1.23461
C         47.71719        52.89197         1.14915
C         46.45294        52.17377         1.12047
C         47.71281        54.30997         0.99796
C         46.44111        55.09364         1.26405
C         47.59183        57.14934         0.42340
C         46.42853        56.47500         0.63561
C         47.58866        58.49121        -0.27873
C         46.32826        59.26896        -0.00659
C         47.56165        61.38479        -0.30403
C         46.35142        60.71537        -0.14026
C         48.78005        38.24078        -1.25936
C         50.03406        40.23191        -0.51798
C         48.84942        39.61349        -0.96751
C         50.11606        41.56389        -0.01869
C         48.90551        42.28200         0.39004
C         50.12307        44.45831        -0.08726
C         48.87446        43.68883         0.28550
C         50.14515        45.83557         0.54367
C         48.96827        46.48327         0.76909
C         50.22022        48.61783         1.26212
C         48.94375        47.82404         1.45419
C         50.19160        50.02401         1.34056
C         48.98298        50.76327         1.36959
C         50.19266        52.88975         1.00761
C         48.95071        52.17750         1.20430
C         50.16006        54.29728         0.75342
C         48.90277        54.99393         0.78144
C         50.12138        57.18837         0.26068
C         48.87982        56.47200         0.66111
C         50.09995        58.61545        -0.15799
C         48.86578        59.29107        -0.17110
C         50.05785        61.40287        -0.45453
C         48.83565        60.70378        -0.32796
C         51.33837        42.25792         0.00890
C         52.58622        44.36566         0.31866
C         51.39601        43.67388         0.15855
C         52.63576        45.79749         0.49210
C         51.41273        46.51636         0.73044
C         52.68225        48.62822         0.87340
C         51.43640        47.90565         1.00436
C         52.70366        50.03074         0.96540
C         51.49432        50.77337         1.47959
C         52.62934        52.88401         0.72509
C         51.42488        52.20265         1.00435
C         52.60093        54.28741         0.46610
C         51.36892        54.98101         0.49950
C         52.58439        57.09498        -0.33670
C         51.32371        56.36777        -0.01573
C         52.59140        58.57452        -0.69779
C         51.31045        59.30368        -0.34346
C         52.55154        61.39234        -0.70463
C         51.30135        60.72186        -0.50393
C         53.84948        46.49308         0.46254
C         55.10300        48.63148         0.43539
C         53.89706        47.91343         0.58522
C         55.12637        50.04166         0.47449
C         53.89894        50.74635         0.71656
C         55.08141        52.88985         0.40461
C         53.88629        52.18157         0.64256
C         55.05777        54.32202         0.29115
C         53.83549        54.98817         0.27084
C         55.07941        57.24618         0.30033
C         53.80968        56.46266         0.21923
C         55.07535        58.68566        -0.10092
C         53.86014        59.31499        -0.33981
C         55.02854        61.37672        -0.88368
C         53.80095        60.72661        -0.62467
C         56.33087        50.79039         0.28669
C         57.54261        52.95505         0.09596
C         56.33199        52.18452         0.27221
C         57.54964        54.33383         0.10300
C         56.30152        55.07494         0.22599
C         57.58324        57.21585         0.53040
C         56.31913        56.45535         0.27072
C         57.54200        58.66617         0.05415
C         56.33337        59.39474        -0.18182
C         57.40344        61.40809        -1.36092
C         56.27896        60.74025        -0.74411
C         58.77792        55.10382        -0.03285
C         60.15460        57.16806         0.17271
C         58.82481        56.45111         0.12857
C         60.04499        58.63937        -0.18976
C         58.80019        59.28572         0.06249
C         59.94038        61.37980        -1.67964
C         58.71107        61.18785        -0.97699
C         61.10944        59.34517        -0.74320
C         61.05244        60.59437        -1.43265
O         45.80501        38.49580        -2.96750
O         54.22945        57.04720         1.51342
O         33.70217        58.58659        -2.20126
O         58.86161        60.65922         0.32429
O         51.88072        56.35543        -1.38744
O         34.49482        56.91759         0.92146
O         44.76973        35.27380         0.17147
O         44.71532        50.18245        -0.36273
O         47.56425        41.35453        -1.99034
O         49.74477        57.10558         1.69335
O         47.91476        48.90542        -0.44686
H         47.78861        48.05194        -0.93516
O         43.58606        59.04064        -1.50407
H         42.60454        58.98868        -1.64421
O         41.87863        35.77621        -2.12063
H         42.27288        36.42607        -2.73814
O         52.62260        58.63648        -2.16563
H         52.04913        57.90088        -2.48721
O         48.81160        47.51736         2.86817
H         48.59815        48.36262         3.33507
O         43.74881        43.65513         2.49982
H         44.50791        43.19875         2.91854
O         45.16884        48.73970         2.97766
H         45.34431        47.85885         3.36993
O         47.79352        40.35425         1.29880
H         46.89811        40.02621         1.52168
O         61.09636        56.46846        -0.63159
H         61.99154        56.81379        -0.44436
O         40.75853        58.93322        -1.54352
H         40.26825        58.35353        -2.16298
O         57.65784        57.32770         2.00173
H         56.75941        57.55814         2.32486
O         39.52430        54.60271        -1.52743
H         38.70502        54.70890        -2.07287
O         36.17510        59.39955         1.57904
H         36.94988        59.78165         2.04160
O         46.93649        39.02604        -3.68771
H         46.88337        40.00331        -3.52963
O         42.13348        56.46378        -1.38457
H         41.64577        55.79440        -1.91225
O         36.74140        54.75559        -1.96290
H         36.47875        53.83260        -2.17315
O         42.13421        56.84777         2.22489
H         42.69927        57.30391         2.88326
O         43.25776        39.54968         1.78398
H         42.56182        39.76016         2.44147
O         37.53432        53.31469         2.27722
H         38.29541        53.89303         2.53448
O         43.44109        40.01781        -1.83423
H         44.12295        39.72342        -2.48173
O         47.67848        46.14988        -1.17818
H         48.46886        45.67903        -1.55528
O         47.62798        49.84858         3.09226
H         47.62372        50.73822         3.50455
O         42.95660        44.28874        -1.01322
H         42.21779        44.76459        -1.44631
O         51.69963        50.87409         2.94398
H         52.56077        51.32284         3.08565
O         39.90222        54.83976         2.14181
H         40.52969        55.56565         2.37986
O         40.80398        59.24084         2.08123
H         41.36568        59.77753         2.67760
O         47.51954        58.15659        -1.72170
H         46.57471        58.00967        -1.94705
O         46.41444        55.30621         2.71861
H         47.22602        55.80544         2.95450
O         50.04089        44.67966        -1.54310
H         49.95973        43.79753        -1.96668
O         38.96335        43.51829         2.74642
H         38.98963        44.44922         3.05583
H         29.37732        56.59953        -0.09429
H         28.23047        58.84644        -0.30070
H         30.56346        62.32763        -1.33836
H         28.39198        61.26966        -0.82706
H         31.89773        52.24533         0.19571
H         30.67090        54.37752         0.23221
H         32.84178        62.30065        -1.28548
H         34.38419        48.01815         0.41213
H         33.14240        50.12832         0.31117
H         35.39529        62.56776        -0.85482
H         36.81670        43.76846         0.82659
H         35.60484        45.89963         0.56750
H         37.81493        62.57975        -0.25730
H         39.32793        39.49997         0.19066
H         38.10647        41.55789         0.78863
H         40.20458        62.56681         0.08268
H         41.96611        35.27894        -0.12597
H         40.56395        37.38269        -0.15806
H         42.65988        62.55442         0.11991
H         45.17726        32.29881        -2.53474
H         43.02321        33.31796        -1.87333
H         45.12641        62.51935         0.05173
H         47.29708        33.57559        -2.43819
H         48.54722        35.68305        -1.89865
H         47.55850        62.48280        -0.38042
H         49.70108        37.63851        -1.19889
H         50.97016        39.65316        -0.58876
H         50.04147        62.49831        -0.55886
H         52.27501        41.70175        -0.15414
H         53.53517        43.80729         0.34895
H         52.54444        62.47614        -0.89740
H         54.78443        45.94327         0.27671
H         56.03739        48.08105         0.24889
H         55.00906        62.41429        -1.25022
H         57.27608        50.24509         0.14377
H         58.49195        52.41036        -0.02208
H         57.19088        62.05659        -2.22449
H         59.70900        54.55847        -0.25011
H         60.50580        57.13156         1.25406
H         59.99264        62.13971        -2.47352
H         62.06393        58.80383        -0.85164
H         61.97317        60.86298        -1.97443
