         640
 CSIRO Nanostructure Databank - Neutral Graphene Oxide Data Set
C         23.13840        27.54473         1.06954
C         23.25450        28.88003         1.38573
C         23.41700        31.74880         1.92508
C         23.45639        33.14136         2.08976
C         23.50970        36.03743         2.41976
C         23.54972        37.39885         2.60758
C         23.67468        40.30134         3.00775
C         23.71032        41.67966         3.03268
C         23.84373        44.60561         3.14239
C         23.85139        45.97879         3.06083
C         25.26068        24.80335        -0.32234
C         24.11099        25.50510         0.07106
C         25.28212        27.67289        -0.16386
C         24.14900        26.88075         0.32410
C         25.48668        29.03802         0.32981
C         24.40574        29.65586         1.04073
C         25.62670        31.84056         0.77506
C         24.47559        31.04802         1.35025
C         25.80170        33.20550         1.39704
C         24.61339        33.88758         1.82736
C         25.92930        35.97038         2.04743
C         24.68821        35.30213         2.11502
C         25.97560        37.38994         2.23476
C         24.76965        38.11177         2.49057
C         25.99138        40.23002         2.22710
C         24.80466        39.54442         2.59734
C         25.99251        41.65553         2.15466
C         24.85281        42.39280         2.58781
C         25.95492        44.49801         1.89287
C         24.88208        43.83418         2.55165
C         25.90156        45.91290         1.68739
C         24.84990        46.65483         2.31033
C         25.70054        48.70850         1.36133
C         24.80865        48.06869         2.18811
C         27.81657        23.38252        -0.14144
C         27.73083        24.70266        -0.56671
C         26.49090        25.43568        -0.53900
C         27.82474        27.59734        -0.64331
C         26.53446        26.89744        -0.68119
C         27.91206        28.94202        -0.28573
C         26.74192        29.67510         0.16476
C         28.13622        31.64354         0.67186
C         26.89305        31.03588         0.59654
C         28.24314        32.89631         1.53435
C         27.03962        33.81614         1.46378
C         28.38623        35.87583         1.83121
C         27.15434        35.22852         1.78836
C         28.51175        37.34579         2.22724
C         27.20576        38.09054         2.10284
C         28.37653        40.19846         1.55529
C         27.19361        39.49170         1.96645
C         28.32101        41.58667         1.36737
C         27.14419        42.33153         1.65031
C         28.12634        44.43345         0.74501
C         27.08823        43.75471         1.41992
C         28.02254        45.81182         0.41325
C         26.86180        46.57440         0.85220
C         27.37637        48.67932        -0.41734
C         26.66934        47.97834         0.61779
C         27.67687        50.03091        -0.55533
C         30.24757        23.24241        -0.43420
C         29.03719        22.67150        -0.07655
C         30.24321        24.59047        -1.03565
C         28.94223        25.36013        -1.10729
C         30.32756        27.50518        -0.96341
C         28.98678        26.88366        -1.29343
C         30.38307        28.89462        -0.67545
C         29.19764        29.61770        -0.29742
C         30.57862        31.60631         0.15074
C         29.31276        30.94970         0.19057
C         30.74627        32.94926         0.75707
C         29.58478        33.61183         1.43834
C         30.93609        35.82510         1.45853
C         29.63799        35.09571         1.72818
C         31.02399        37.36611         1.56109
C         29.67774        38.08609         1.57540
C         30.71701        40.18185         0.69751
C         29.60437        39.44227         1.30825
C         30.62556        41.50889         0.38608
C         29.55280        42.37183         0.99762
C         30.53989        44.37047        -0.10312
C         29.24869        43.60508         0.13800
C         30.55669        45.86544         0.03484
C         29.17429        46.41741        -0.20257
C         30.17187        48.40661        -1.36408
C         29.09601        47.55977        -0.97958
C         29.78241        49.68250        -1.86563
C         28.67286        50.44366        -1.47124
C         32.76390        20.46257         0.06921
C         31.59011        21.18855         0.09844
C         32.67511        23.16428        -0.86020
C         31.51281        22.53797        -0.36861
C         32.71897        24.57843        -1.13819
C         31.52160        25.32730        -1.11695
C         32.78709        27.43032        -1.24330
C         31.52748        26.75278        -1.12681
C         32.82822        28.86533        -1.09337
C         31.64577        29.57275        -0.70654
C         32.98141        31.67180        -0.47877
C         31.72563        30.95510        -0.35274
C         33.07870        33.04810        -0.16574
C         31.94417        33.75874         0.40887
C         33.31662        35.85722         0.63704
C         32.02361        35.08680         0.75170
C         33.09573        37.23277        -0.01713
C         31.93685        37.99504         0.55247
C         33.09446        40.09972        -0.25487
C         32.06001        39.48614         0.65343
C         32.96440        41.49611        -0.68791
C         31.67317        42.21170        -0.40462
C         32.90974        44.40758        -0.76224
C         31.69274        43.69748        -0.40468
C         32.86824        45.82754        -0.93953
C         31.64934        46.54636        -0.77742
C         32.74218        48.65767        -1.44357
C         31.53254        47.89051        -1.22944
C         32.77979        50.11387        -1.52906
C         31.71314        50.91811        -1.99822
C         32.78417        52.96497        -1.30633
C         31.69831        52.31068        -1.87849
C         35.20914        18.84773        -0.34869
C         35.18159        20.29513        -0.54424
C         33.94863        20.99806        -0.49633
C         35.22945        23.08708        -1.28765
C         33.87823        22.35064        -1.04909
C         35.22863        24.55218        -1.33208
C         33.96808        25.25782        -1.35537
C         35.20580        27.35922        -1.85457
C         33.96278        26.66982        -1.45720
C         35.23147        28.85654        -1.72295
C         34.04488        29.56972        -1.22751
C         35.36268        31.65733        -1.19834
C         34.13522        30.96582        -0.96349
C         35.43229        33.06390        -0.94927
C         34.30852        33.74775        -0.39105
C         35.58294        35.84146        -0.45732
C         34.43022        35.13491        -0.09432
C         35.65861        37.30541        -0.26332
C         34.38926        38.04833         0.02635
C         35.49013        40.16736        -0.80518
C         34.30326        39.46671        -0.38394
C         35.42965        41.58691        -0.98407
C         34.19609        42.27587        -0.89455
C         35.33806        44.42861        -1.23711
C         34.13047        43.69637        -0.97451
C         35.27652        45.83401        -1.43618
C         34.05568        46.53913        -1.32300
C         35.21623        48.73299        -1.35701
C         34.00218        47.98413        -1.39760
C         35.21978        50.12550        -1.09108
C         33.96722        50.82534        -1.15749
C         35.16132        52.93321        -0.58568
C         33.94855        52.24087        -0.98619
C         35.14228        54.28929        -0.19132
C         37.64693        18.91952         0.09028
C         36.35294        18.17503        -0.12176
C         37.69427        20.19171        -0.78592
C         36.40747        20.98434        -0.73033
C         37.68494        23.11123        -0.88724
C         36.46102        22.37586        -0.94765
C         37.69687        24.51283        -1.13025
C         36.46007        25.20566        -1.36381
C         37.74271        27.38007        -1.53000
C         36.52471        26.58856        -1.95397
C         37.73898        28.76602        -1.65785
C         36.53837        29.52815        -1.66741
C         37.80252        31.62161        -1.72460
C         36.55678        30.93049        -1.56101
C         37.74717        33.08796        -1.86676
C         36.61263        33.79697        -1.26133
C         37.93202        35.91276        -1.34750
C         36.69782        35.18303        -1.06156
C         37.95675        37.35592        -1.18753
C         36.79710        38.05093        -0.82690
C         37.91619        40.20507        -1.24837
C         36.72624        39.47605        -0.94138
C         37.88172        41.62620        -1.33853
C         36.64080        42.32064        -1.22140
C         37.81688        44.46127        -1.48985
C         36.58739        43.73527        -1.33623
C         37.80699        45.87832        -1.56829
C         36.52205        46.54914        -1.74964
C         37.74908        48.76369        -1.25659
C         36.49958        48.08744        -1.62842
C         37.70662        50.15199        -0.96006
C         36.44428        50.84156        -0.93213
C         37.61273        52.97857        -0.43383
C         36.41030        52.25341        -0.64729
C         37.57289        54.34320        -0.10156
C         36.31701        54.97310         0.06943
C         40.16040        16.25799         1.03299
C         38.96408        16.84598         0.75572
C         40.15711        18.87940        -0.08333
C         38.89098        18.05032        -0.15156
C         40.14589        20.29219        -0.23398
C         38.92090        21.00846        -0.45382
C         40.11248        23.16989        -0.43427
C         38.91709        22.41888        -0.58513
C         40.14108        24.56364        -0.68452
C         38.93754        25.24269        -1.06018
C         40.17265        27.37622        -1.00671
C         38.96806        26.66939        -1.22899
C         40.14041        28.88485        -0.92392
C         39.07169        29.45095        -1.84037
C         40.27428        31.62224        -1.81943
C         39.01987        30.95127        -1.75311
C         40.28876        33.03366        -2.24057
C         39.01949        33.83073        -2.14275
C         40.36724        35.93549        -1.84295
C         39.08420        35.25911        -1.77927
C         40.39149        37.38915        -1.67228
C         39.16552        38.08283        -1.43735
C         40.36863        40.23037        -1.57520
C         39.14900        39.50347        -1.41711
C         40.35638        41.65287        -1.62342
C         39.09742        42.35692        -1.54648
C         40.27575        44.54301        -1.81761
C         39.04695        43.76133        -1.60736
C         40.25901        45.96915        -1.45206
C         39.01087        46.63453        -1.45463
C         40.18482        48.74056        -0.88893
C         38.97393        48.05945        -1.23136
C         40.14644        50.15054        -0.63144
C         38.92824        50.84316        -0.71710
C         40.11472        52.96913        -0.07017
C         38.93778        52.34622        -0.77762
C         40.01831        54.37371         0.25399
C         38.82230        55.07819         0.10454
C         39.97365        57.25390         0.08627
C         38.82919        56.51860         0.01856
C         42.65393        16.29598         1.02733
C         41.39983        16.86390         0.64487
C         42.61141        18.91427        -0.02558
C         41.38598        18.21000         0.12561
C         42.60208        20.32580        -0.05203
C         41.36670        21.01184        -0.09753
C         42.61286        23.20465        -0.10476
C         41.31566        22.49216         0.15730
C         42.60895        24.60078        -0.28683
C         41.37796        25.29608        -0.55564
C         42.63290        27.45193        -0.63113
C         41.38976        26.70761        -0.72015
C         42.66309        28.87319        -0.86133
C         41.47264        29.57106        -1.14963
C         42.75427        31.67440        -1.51396
C         41.48701        30.94711        -1.50675
C         42.80929        33.02545        -1.83321
C         41.59790        33.77395        -2.21401
C         42.85259        35.94291        -1.71548
C         41.55163        35.23985        -2.01692
C         42.84989        37.39840        -2.22464
C         41.58780        38.10784        -1.78657
C         42.83930        40.24890        -1.73032
C         41.60077        39.52542        -1.69680
C         42.81908        41.65950        -1.72666
C         41.59028        42.34546        -1.72267
C         42.80092        44.55034        -1.40975
C         41.59440        43.81755        -1.84575
C         42.71801        45.93012        -1.07877
C         41.46469        46.64398        -1.14296
C         42.61982        48.71612        -0.41553
C         41.41969        48.03585        -0.82441
C         42.56510        50.13419        -0.12147
C         41.36297        50.84327        -0.24758
C         42.49292        52.90548         0.72338
C         41.28690        52.25515         0.07905
C         42.52695        54.40167         0.55257
C         41.23555        55.09313         0.64548
C         42.52231        57.26479         0.23500
C         41.22841        56.63778         0.52131
C         43.84125        16.88994         0.70663
C         45.12727        18.93657         0.03218
C         43.88111        18.11696        -0.17065
C         45.08514        20.35602         0.09047
C         43.84778        21.06399         0.03764
C         45.05999        23.21826         0.18126
C         43.83659        22.49206         0.03682
C         45.05403        24.64655         0.08889
C         43.84251        25.33300        -0.21787
C         45.08457        27.47811        -0.28136
C         43.84502        26.75259        -0.39046
C         45.09425        28.87678        -0.42867
C         43.91717        29.59673        -0.79578
C         45.18941        31.74156        -0.99340
C         43.96521        30.98743        -1.10051
C         45.29470        33.06914        -1.40958
C         44.13550        33.66002        -2.17882
C         45.36949        35.94709        -1.90931
C         44.10462        35.19620        -2.15835
C         45.31230        37.40581        -1.63204
C         44.11113        38.11956        -1.78651
C         45.31114        40.24429        -1.45364
C         44.09221        39.52884        -1.68199
C         45.32187        41.67752        -1.42979
C         44.10495        42.44355        -1.90457
C         45.19396        44.54576        -0.98165
C         44.02003        43.85776        -1.34972
C         45.13510        45.89564        -0.58386
C         43.89318        46.60897        -0.63451
C         45.01161        48.64981         0.35057
C         43.81954        47.99581        -0.29571
C         45.03920        50.14824         0.20899
C         43.81052        50.84398         0.16574
C         45.00692        52.97615         0.44446
C         43.79434        52.24172         0.35964
C         44.98679        54.40788         0.52938
C         43.70872        55.11541         0.50249
C         43.67616        56.55410         0.29148
C         47.57026        18.91940         0.14838
C         46.38071        18.25865         0.06800
C         47.65278        20.41386         0.08957
C         46.30405        21.09930         0.21725
C         47.52264        23.20885         0.62127
C         46.28433        22.49096         0.35512
C         47.46179        24.69423         0.85971
C         46.26830        25.38722         0.25241
C         47.56390        27.49073         0.13564
C         46.30007        26.77014         0.05467
C         47.60324        28.88381        -0.01665
C         46.32880        29.61827        -0.11210
C         47.68944        31.75287        -0.53961
C         46.37259        31.10630        -0.38125
C         47.73348        33.12041        -0.89946
C         46.52850        33.80895        -1.29174
C         47.79852        35.94082        -1.38542
C         46.59199        35.19877        -1.55013
C         47.76433        37.36407        -1.39402
C         46.53377        38.09282        -1.40518
C         47.74926        40.24579        -1.09471
C         46.52793        39.52504        -1.30503
C         47.71902        41.65533        -0.93915
C         46.49118        42.36274        -1.13718
C         47.58153        44.42131        -0.24995
C         46.53510        43.87580        -1.21562
C         47.60832        45.93069        -0.23768
C         46.36562        46.61173        -0.24140
C         47.52484        48.70207         0.29448
C         46.32696        47.99100         0.03414
C         47.50601        50.14214         0.45195
C         46.26628        50.84821         0.36323
C         47.47935        53.01017         0.51242
C         46.25690        52.28224         0.41986
C         47.42205        54.41816         0.61380
C         46.20751        55.09505         0.62009
C         49.98071        20.37793         1.12942
C         48.62898        21.03368         1.10283
C         49.95377        23.24139         1.00620
C         48.69362        22.53509         0.87862
C         49.97654        24.66860         0.79599
C         48.77544        25.38092         0.59741
C         50.03776        27.47223         0.31620
C         48.79082        26.77001         0.34522
C         50.05891        28.88400         0.11202
C         48.83865        29.60109        -0.03910
C         50.13856        31.70248        -0.32861
C         48.87465        31.02081        -0.28899
C         50.17393        33.12160        -0.53551
C         48.97919        33.82435        -0.85685
C         50.25855        35.91842        -0.96315
C         49.02731        35.23247        -1.10188
C         50.34368        37.34734        -1.27858
C         49.01369        38.12542        -1.46414
C         50.20934        40.26513        -0.98674
C         49.00542        39.56506        -1.14887
C         50.19016        41.66103        -0.69224
C         48.94790        42.36260        -0.67907
C         50.11485        44.45435        -0.14404
C         48.92635        43.75903        -0.43351
C         50.13040        45.96208        -0.23317
C         48.79864        46.62571         0.04183
C         49.95188        48.68843         0.91110
C         48.75621        48.00279         0.31228
C         49.97558        50.17625         0.70089
C         48.73995        50.86732         0.56444
C         49.97724        52.97718         0.62089
C         48.73564        52.29702         0.55399
C         51.12253        21.08414         1.23587
C         52.41050        23.24191         1.23780
C         51.15253        22.53753         1.18402
C         52.44672        24.64639         0.98958
C         51.22997        25.35699         0.75238
C         52.51015        27.45076         0.44994
C         51.25394        26.75903         0.51566
C         52.52312        28.84152         0.17545
C         51.31979        29.56529         0.04192
C         52.60122        31.69583        -0.08066
C         51.34711        30.98834        -0.14990
C         52.61123        33.12375        -0.12576
C         51.40650        33.83095        -0.39670
C         52.67098        35.97278        -0.34232
C         51.44035        35.25024        -0.55419
C         52.69553        37.41914        -0.48604
C         51.54412        38.09132        -0.90794
C         52.76882        40.31815        -0.74556
C         51.50860        39.55356        -1.09343
C         52.64938        41.70803        -0.29052
C         51.39177        42.36809        -0.32693
C         52.51647        44.42050         0.62741
C         51.32822        43.75800        -0.02827
C         52.53152        45.92677         0.55742
C         51.32170        46.62740         0.41671
C         52.45045        48.71984         1.01379
C         51.27162        48.00968         0.65969
C         52.42151        50.15364         1.13090
C         51.19264        50.87429         0.85971
C         51.16744        52.29530         0.76749
C         54.83040        23.26174         1.56283
C         53.62654        22.57776         1.52585
C         54.90498        24.64427         1.29034
C         53.69772        25.34640         0.98545
C         54.98635        27.44628         0.68632
C         53.72700        26.73889         0.68300
C         55.03224        28.82395         0.41245
C         53.82727        29.51021        -0.16831
C         55.03341        31.69532         0.26315
C         53.81683        30.99688         0.04663
C         55.01754        33.11552         0.34263
C         53.83389        33.83467         0.08390
C         55.08832        35.99123         0.21487
C         53.84422        35.27947         0.00949
C         55.11289        37.42859         0.10914
C         53.92185        38.13609        -0.22977
C         55.14890        40.26791        -0.09509
C         53.97349        39.55767        -0.33664
C         55.17069        41.75770        -0.37105
C         53.85742        42.43269        -0.02185
C         55.07246        44.61663         0.14415
C         53.82763        43.77453         0.27873
C         54.99997        45.93343         0.89050
C         53.72064        46.60963         0.93992
C         54.80375        48.69529         1.80893
C         53.66005        47.99936         1.21514
C         54.75781        50.15330         1.85687
C         53.61987        50.83085         1.50076
C         57.38442        24.71198         1.64411
C         56.17053        25.35575         1.32301
C         57.43568        27.45299         0.99143
C         56.19245        26.74864         1.02010
C         57.47177        28.83182         0.66482
C         56.26570        29.54068         0.46010
C         57.51943        31.69009         0.51602
C         56.27275        30.97579         0.39082
C         57.52162        33.10399         0.65206
C         56.22476        33.83561         0.87948
C         57.50263        35.99473         0.67028
C         56.27287        35.29685         0.50441
C         57.51877        37.42373         0.66547
C         56.31330        38.14055         0.37567
C         57.52703        40.29797         0.55505
C         56.33882        39.58007         0.29115
C         57.56058        41.72465         0.48865
C         56.35837        42.46199         0.23480
C         57.52365        44.53646         0.77774
C         56.32740        43.82999         0.44095
C         57.46612        45.93212         1.06109
C         56.17613        46.57433         1.24259
C         57.43354        48.65365         1.92533
C         56.16783        47.91477         1.86119
C         58.59036        25.41265         1.68450
C         59.86842        27.53629         1.47431
C         58.64155        26.77293         1.35884
C         59.93803        28.82815         1.08633
C         58.79474        29.48635         0.35076
C         59.95167        31.71996         0.48185
C         58.75823        30.99244         0.48232
C         59.94678        33.10815         0.59055
C         58.73340        33.81417         0.72083
C         59.88510        35.98042         1.17058
C         58.72350        35.27295         0.87175
C         59.87581        37.38252         1.25605
C         58.72711        38.11211         0.97620
C         59.99930        40.30981         0.80988
C         58.71525        39.60832         1.17708
C         60.01376        41.65329         0.66583
C         58.78393        42.42560         0.67937
C         59.96695        44.61302         0.98236
C         58.77588        43.84807         0.79724
C         59.91026        45.97469         1.18115
C         58.66289        46.65204         1.26608
C         58.60987        48.05221         1.61145
O         55.32094        48.05945         3.03468
O         44.82089        35.72065        -3.31654
O         30.57647        32.88655         2.23822
O         41.01253        33.29418        -3.48963
O         41.12649        55.96507         1.81512
O         40.98568        44.28754        -3.10088
O         38.07684        33.54597        -3.23647
O         25.55575        27.48410        -1.58550
O         34.99843        28.19609        -3.04943
O         30.61168        35.32580         2.80798
O         36.50138        47.40981        -2.93339
O         35.31305        37.77626         1.10439
O         46.13721        30.59605         0.98390
O         30.67079        50.34500        -2.73264
O         27.82201        47.87447        -1.48886
O         49.84411        37.73492        -2.60449
O         29.45295        24.66482        -2.29672
O         31.91483        41.65214        -1.74151
O         52.38712        40.08860        -2.15524
O         34.47520        22.47764        -2.37912
O         28.83125        37.34127         3.66093
H         29.71051        36.89440         3.74667
O         30.11936        42.90998         2.23694
H         30.39155        42.15196         2.79768
O         44.82460        48.41260         1.80437
H         45.61161        48.77991         2.26151
O         55.32515        41.92993        -1.82489
H         54.60250        41.42392        -2.25858
O         39.49814        29.14153        -3.19688
H         38.89797        29.59977        -3.82165
O         39.74865        29.20995         0.44656
H         40.42556        28.83605         1.04923
O         32.84173        36.94986        -1.43226
H         32.52076        37.77482        -1.85472
O         52.32500        44.14996         2.07969
H         52.35195        43.17625         2.19822
O         37.83992        19.77912        -2.17441
H         37.67153        20.56184        -2.73976
O         39.15316        52.66326        -2.20992
H         38.42105        52.24612        -2.71287
O         58.55728        39.79016         2.63771
H         58.56229        40.75675         2.80728
O         28.16111        32.37946         2.90238
H         29.08864        32.20568         3.19054
O         28.76913        43.11591        -1.13993
H         28.59695        43.88560        -1.72120
O         47.25158        24.81724         2.32559
H         47.20470        25.77604         2.53001
O         37.70390        19.32211         1.47908
H         36.89146        19.83077         1.68270
O         50.35012        46.21790        -1.66930
H         49.63318        45.76657        -2.16578
O         49.74630        48.51834         2.37679
H         50.51475        48.93233         2.82628
O         59.03935        29.22157        -1.08145
H         59.03502        28.24793        -1.20053
O         32.61586        39.83488         1.98911
H         32.26397        39.15334         2.62540
O         25.20688        32.14963        -0.61031
H         25.03535        31.29424        -1.06088
O         44.35769        33.24475        -3.56322
H         44.77596        34.01077        -4.02482
O         53.96826        29.33681        -1.63997
H         53.96994        28.37161        -1.81688
O         47.11780        44.02338         1.07851
H         47.72177        44.41836         1.74203
O         42.96667        35.98200        -0.25835
H         42.19184        36.47249         0.09117
O         28.80989        27.13274        -2.72549
H         29.15897        26.33416        -3.18919
O         33.72331        36.07261         2.02346
H         33.82622        35.19286         2.44383
O         44.31130        42.61894        -3.35140
H         43.47691        42.97439        -3.72851
O         43.93478        17.64242        -1.57690
H         43.13814        17.08974        -1.72421
O         42.33005        52.67197         2.17261
H         43.01024        53.20515         2.63631
O         48.18051        20.74618        -1.23233
H         47.58030        20.35326        -1.90050
O         36.75957        26.33885        -3.37822
H         36.31539        27.07572        -3.86234
O         48.03505        20.82640         2.41664
H         48.53478        21.36822         3.06237
O         55.13642        44.95670        -1.28523
H         55.24873        44.10429        -1.76993
O         30.90432        46.13283         1.44677
H         30.56707        45.37909         1.98028
O         38.78594        17.50355        -1.49742
H         39.58818        16.96719        -1.66588
O         41.12229        22.60642         1.63544
H         41.88096        22.14959         2.05900
O         56.03889        33.83023         2.35216
H         55.22390        34.34189         2.54338
O         31.60456        37.59252         2.91484
H         32.45036        37.06821         2.91946
O         42.80220        37.41855        -3.66841
H         43.61345        36.95826        -3.99373
O         46.93996        44.22007        -2.56626
H         46.28931        43.80398        -3.17677
H         22.25687        26.97533         1.39743
H         22.44147        29.35290         1.95147
H         22.50976        31.22161         2.25009
H         22.56884        33.62916         2.51331
H         22.54028        35.52581         2.47366
H         22.61348        37.93556         2.80861
H         22.75771        39.79130         3.33113
H         22.81752        42.22316         3.36868
H         23.03809        44.10899         3.69871
H         23.06176        46.56851         3.54802
H         25.20583        23.70639        -0.35542
H         23.20605        24.93861         0.33421
H         25.62405        49.79393         1.20566
H         24.02956        48.63474         2.71763
H         26.91338        22.87141         0.21889
H         27.15905        50.79120         0.04697
H         29.00460        21.64503         0.31292
H         28.69500        51.50450        -1.76440
H         32.77231        19.44433         0.48247
H         30.69295        20.71420         0.51736
H         32.76071        54.05780        -1.20732
H         30.83593        52.87539        -2.25544
H         34.26128        18.29783        -0.44143
H         34.18545        54.81578        -0.07505
H         36.33608        17.08121        -0.00908
H         36.26551        56.02034         0.39624
H         40.19772        15.31921         1.60670
H         38.02799        16.36054         1.06670
H         39.96919        58.32148        -0.17898
H         37.89495        57.02405        -0.26428
H         42.64712        15.36488         1.61457
H         42.53707        58.32219        -0.06919
H         44.78239        16.43993         1.05287
H         44.62058        57.07149         0.07434
H         48.50828        18.34655         0.11782
H         46.38595        17.16061         0.00848
H         48.34530        55.00533         0.70156
H         46.22123        56.18899         0.71253
H         50.02135        19.27953         1.16639
H         50.00692        54.07351         0.56824
H         52.07297        20.53781         1.30854
H         52.10214        52.86877         0.82145
H         55.74055        22.69820         1.80679
H         53.63363        21.50284         1.74726
H         55.62405        50.70676         2.24389
H         53.62165        51.92703         1.57277
H         57.39556        23.64218         1.89056
H         57.42366        49.68871         2.29394
H         59.51353        24.89084         1.97526
H         60.74277        27.04265         1.92546
H         60.88513        29.37510         1.19812
H         60.91461        31.20032         0.38570
H         60.90452        33.64515         0.57914
H         60.82537        35.44966         1.37134
H         60.80112        37.89652         1.54962
H         60.94223        39.74600         0.77387
H         60.96728        42.17282         0.49290
H         60.94464        44.11258         0.97184
H         60.83703        46.54886         1.32522
H         59.55543        48.60780         1.69603
