         324
 CSIRO Nanostructure Databank - Neutral Graphene Oxide Data Set
C          1.80880         2.09765         2.60657
C          1.73836         3.50901         2.47818
C          2.86912         1.36735         2.13519
C          2.75295         4.26319         1.87030
C          1.71702         6.47463         2.40557
C          1.69243         7.84535         2.34761
C          2.76387         5.68645         1.84803
C          2.80569         8.60323         1.77048
C          1.34107        10.73359         1.31243
C          1.21361        11.99935         0.88203
C          2.66199        10.05257         1.31878
C          2.38058        12.79275         0.40157
C          1.35350        14.94489         1.19086
C          1.40385        16.31695         1.40451
C          2.46722        14.24497         0.69077
C          2.58020        17.04373         1.13042
C          2.64320        18.45238         1.37701
C          3.91935         2.00711         1.34086
C          3.85230         3.53141         1.18334
C          5.21791         1.35871         1.18170
C          5.13124         4.24491         0.93662
C          3.81993         6.36837         1.00730
C          3.95513         7.85643         1.24057
C          5.13276         5.61917         1.00194
C          5.08519         8.55309         0.82313
C          3.66719        10.52160         0.26212
C          3.65758        12.04550         0.11550
C          5.04463         9.94259         0.51080
C          4.93400        12.79197         0.11469
C          3.68296        14.92990         0.41977
C          3.73571        16.36009         0.62863
C          4.87808        14.19543         0.10351
C          4.92130        17.10540         0.42302
C          3.80546        19.15380         1.18992
C          4.98949        18.49250         0.72973
C          6.35956         2.05766         0.77008
C          6.34294         3.50465         0.66047
C          7.57263         1.35741         0.52599
C          7.52027         4.18985         0.29056
C          6.40455         6.34648         0.86977
C          6.38681         7.85706         0.75185
C          7.56106         5.63615         0.30938
C          7.53476         8.53965         0.14363
C          6.21570        10.65221         0.16815
C          6.17122        12.08372         0.00040
C          7.47228         9.95141        -0.00254
C          7.40195        12.79985        -0.16414
C          6.10732        14.92831        -0.23756
C          6.11886        16.45392        -0.12417
C          7.39839        14.23541        -0.21302
C          7.41965        17.12383         0.03623
C          6.20039        19.20898         0.54205
C          7.41010        18.56034         0.23886
C          8.74567         2.02600         0.12407
C          8.71314         3.45692        -0.01898
C          9.95853         1.32774        -0.12762
C          9.88477         4.14030        -0.42511
C          8.65965         6.35962        -0.14700
C          8.69313         7.80357        -0.19348
C          9.80087         5.60052        -0.69534
C          9.87361         8.52220        -0.62418
C          8.66402        10.67006        -0.31256
C          8.62082        12.08426        -0.29161
C          9.88332         9.94970        -0.63520
C          9.87021        12.83619        -0.42551
C          8.59087        14.99017        -0.27652
C          8.60332        16.42486        -0.08957
C          9.81952        14.30209        -0.53572
C          9.91754        17.12696         0.24084
C          8.61508        19.27002         0.02106
C          9.87087        18.63770        -0.09123
C         11.12489         2.00737        -0.51169
C         11.06536         3.43305        -0.67160
C         12.38706         1.33199        -0.65427
C         12.33168         4.15100        -0.91916
C         11.02506         6.36225        -1.08821
C         11.06229         7.83998        -0.99714
C         12.32503         5.64233        -1.07464
C         12.22408         8.52091        -1.40129
C         11.06951        10.63012        -1.02284
C         11.11489        12.09485        -0.84825
C         12.25476         9.94845        -1.41553
C         12.19081        12.86552        -1.53855
C         10.99860        15.01350        -0.76460
C         11.09499        16.37152        -0.36012
C         12.18448        14.35741        -1.37004
C         12.37737        16.88805        -0.19332
C         10.97690        19.45831        -0.39664
C         12.33833        19.05584        -0.23882
C         13.54912         1.96937        -1.09421
C         13.43296         3.38554        -1.62141
C         14.79121         1.30674        -1.17548
C         14.72857         4.15982        -1.69368
C         13.47507         6.30908        -1.68481
C         13.39456         7.76750        -1.92687
C         14.66130         5.57976        -1.82011
C         14.67291         8.55317        -2.21534
C         13.50193        10.66427        -1.68234
C         13.48614        12.14570        -1.81632
C         14.70345        10.00238        -1.91494
C         14.77080        12.89881        -1.78451
C         13.51469        15.07419        -1.41380
C         13.56786        16.40555        -0.77570
C         14.78460        14.32417        -1.56475
C         14.74844        17.17847        -0.81563
C         13.51043        19.44055        -0.84971
C         14.73480        18.63994        -0.76638
C         15.98000         1.97464        -1.55560
C         15.94706         3.40682        -1.85324
C         17.22622         1.33938        -1.56936
C         17.10920         4.01687        -2.29813
C         15.91414         6.32553        -2.06720
C         15.97411         7.80967        -2.38082
C         17.05270         5.45522        -2.44589
C         17.29179         8.58097        -2.28465
C         15.97400        10.71798        -1.89631
C         15.96374        12.16124        -1.80965
C         17.21313        10.03739        -1.92655
C         17.24957        12.88450        -1.88808
C         15.96774        15.06000        -1.39792
C         15.97866        16.47790        -1.08575
C         17.25304        14.40847        -1.68323
C         17.20419        17.17910        -1.01873
C         15.94571        19.30563        -0.86461
C         17.19730        18.61398        -0.86764
C         18.47210         2.00663        -1.81156
C         18.50090         3.41224        -2.41852
C         19.64133         1.33145        -1.54769
C         19.67512         4.29342        -1.82902
C         18.87780         6.60554        -2.41002
C         18.58195         7.86745        -1.98663
C         19.83229         5.68012        -1.80620
C         19.63416         8.55222        -1.21196
C         18.43149        10.75167        -1.64517
C         18.49103        12.14672        -1.60126
C         19.70178        10.01173        -1.50070
C         19.70484        12.86232        -1.25328
C         18.51858        15.06304        -1.27681
C         18.47447        16.49672        -1.04624
C         19.68522        14.31996        -1.16325
C         19.64055        17.21735        -0.77383
C         18.38938        19.32629        -0.72822
C         19.64036        18.65362        -0.59988
C         20.94092         2.01067        -1.52187
C         20.91477         3.51752        -1.52637
C         22.12739         1.28880        -0.99930
C         21.98040         4.18493        -0.70897
C         20.96888         6.34793        -1.16409
C         20.88463         7.80451        -0.88475
C         22.07293         5.66252        -0.72936
C         22.15327         8.54260        -0.64385
C         20.96769        10.72680        -1.11673
C         20.87503        12.17768        -0.91237
C         22.13442         9.93745        -0.63404
C         22.02743        12.86433        -0.28740
C         20.97394        15.01937        -0.97194
C         20.93411        16.52692        -0.79092
C         22.14561        14.31683        -0.41944
C         22.07410        17.14508        -0.07695
C         20.83009        19.36044        -0.39206
C         22.05259        18.68069         0.04568
C         23.22535         1.93532        -0.50017
C         23.10930         3.38193        -0.15571
C         24.48618         1.26021        -0.29110
C         24.31698         4.12857         0.32513
C         23.26390         6.34113        -0.22503
C         23.31535         7.79323        -0.28372
C         24.35045         5.60512         0.22175
C         24.53803         8.45864         0.07721
C         23.38303        10.67881        -0.45760
C         23.31561        12.09784        -0.02489
C         24.65355         9.92605        -0.07734
C         24.58587        12.82896         0.13994
C         23.32963        14.97585        -0.10081
C         23.35931        16.42923        -0.04479
C         24.55591        14.23420         0.18963
C         24.50570        17.13926         0.26587
C         23.35879        19.32191         0.05396
C         24.53065        18.59469         0.22588
C         25.64149         1.91994         0.06979
C         25.61065         3.36168         0.42648
C         26.92139         1.26594         0.13617
C         26.88535         4.10139         0.44578
C         25.60635         6.26387         0.74928
C         25.65009         7.75211         0.48716
C         26.86808         5.59006         0.18930
C         26.88253         8.41642         0.93375
C         25.74317        10.68115         0.54309
C         25.78855        12.09614         0.42951
C         26.90072         9.96440         1.07425
C         27.01453        12.80912         0.67768
C         25.77489        14.93169         0.43128
C         25.74003        16.40294         0.59066
C         26.98788        14.22798         0.58094
C         27.03977        17.18459         0.61776
C         25.80007        19.27681         0.17186
C         27.01578        18.61946         0.25740
C         28.07887         1.95407         0.43564
C         28.06157         3.40980         0.57729
C         29.37470         1.29096         0.42996
C         29.30815         4.12922         0.80521
C         28.14911         6.29817         0.59225
C         28.15267         7.65787         0.79964
C         29.35958         5.50222         0.74916
C         29.41666         8.38468         1.08613
C         28.17130        10.70364         1.19929
C         28.23021        12.07027         1.00622
C         29.39629         9.86677         1.43232
C         29.60714        12.76065         1.08066
C         28.26705        14.97157         0.48307
C         28.29798        16.44381         0.48911
C         29.57115        14.24656         0.71205
C         29.49100        17.14073         0.35369
C         28.26580        19.26540         0.02893
C         29.47577        18.57628         0.12019
C         30.50435         1.92923         0.79882
C         30.44535         3.31616         1.38770
C         31.76206         4.04864         1.36454
C         30.68541         6.24040         0.79968
C         30.55974         7.55547         1.54291
C         31.84683         5.37547         1.21503
C         31.49652         8.07517         2.37961
C         30.38038        10.24526         2.46475
C         30.34122        12.59665         2.40291
C         31.34516         9.39951         2.92786
C         31.24803        13.50436         2.85973
C         30.70965        15.11545         1.11014
C         30.75939        16.47389         0.56793
C         31.49637        14.73806         2.16518
C         31.93771        17.19114         0.45533
C         30.73157        19.24735        -0.04350
C         31.91796        18.56861         0.10241
O         21.31110        15.94509        -2.07541
O         19.85543         8.13065         0.16663
O         30.18592        11.44325         3.16392
O          2.77205        12.46706        -0.98657
O         21.34075         2.79710        -2.74885
O         10.09173         5.89615        -2.12325
O         29.10586        14.43676        -0.64651
O         16.94594         6.02316        -1.06000
O         12.62467        15.04535        -2.58772
O         18.00371         6.00954        -3.30832
O          5.93005        15.79936        -1.41929
O         26.33022        16.85268         1.86916
O          6.72782         7.20067         2.03272
O         13.74231         8.19887        -3.29114
O         10.94069        12.45716         0.56112
O         29.87769         9.40301         0.12521
O         17.33343        13.81109        -3.01879
O          3.21756         9.77569         2.61558
O         21.75804        17.76919         1.19037
O         22.35454        12.32748         1.05646
O         21.93958         3.67913         0.68350
O         16.68157         8.23859        -3.57554
O         12.70249         4.99539         0.21453
O         12.49376        17.98202         0.67452
O         24.39958        10.40270        -1.46263
O          3.42103         2.67167         0.09474
O         20.67799        10.34022        -2.53750
O         26.69812         9.07637         2.24266
O         24.78497         3.63304         1.62852
O         12.50500        12.47704        -2.89234
O         18.80477         3.25912        -3.82498
H         19.75240         2.98336        -3.87947
O         26.77059         5.71645        -1.26400
H         27.64220         5.48990        -1.65145
O         25.67041         6.11130         2.18916
H         24.78297         6.28664         2.56495
O          3.23643         9.94952        -0.99713
H          2.83851        10.68281        -1.52573
O          3.33261         6.27835        -0.38953
H          3.16655         5.33019        -0.58656
O         30.10912         3.12660         2.80216
H         29.94068         4.01071         3.19091
O         10.05374        17.04403         1.69150
H         10.92176        17.45473         1.91015
O         12.95556         3.26354        -3.00271
H         13.61225         2.73669        -3.50531
O         30.96024         6.62301        -0.58845
H         31.20133         5.81060        -1.08033
O         30.45732        12.13417         0.08866
H         30.14274        12.43354        -0.79249
H          1.01187         1.58984         3.16852
H          0.88382         4.02019         2.94137
H          2.96489         0.29862         2.37514
H          0.88481         5.96574         2.91290
H          0.87167         8.39815         2.82420
H          0.46124        10.18897         1.68670
H          0.22029        12.47252         0.87839
H          0.42193        14.40600         1.40953
H          0.52079        16.84458         1.79194
H          1.73950        18.96227         1.74135
H          5.29765         0.28403         1.40523
H          3.84692        20.23185         1.40158
H          7.58412         0.26267         0.63268
H          6.19968        20.29891         0.69067
H          9.98278         0.23584         0.00328
H          8.57166        20.36907        -0.03202
H         12.44232         0.27371        -0.35526
H         10.76725        20.47646        -0.76231
H         14.84507         0.24018        -0.90702
H         13.54602        20.35995        -1.45263
H         17.27531         0.28026        -1.26945
H         15.95856        20.40549        -0.87582
H         19.59512         0.30548        -1.15036
H         18.35709        20.42107        -0.62865
H         22.16649         0.20127        -1.16798
H         20.82114        20.45951        -0.43846
H         24.53176         0.18380        -0.51679
H         23.41719        20.40003        -0.15745
H         26.96794         0.18485        -0.06490
H         25.79028        20.36123        -0.01441
H         29.41307         0.24582         0.08612
H         28.27103        20.33904        -0.21117
H         31.47327         1.40809         0.77715
H         32.66522         3.46373         1.60067
H         32.83306         5.86434         1.25159
H         32.36742         7.47943         2.68770
H         32.01849         9.73186         3.72812
H         31.80249        13.28978         3.78231
H         32.28607        15.40531         2.53630
H         32.90154        16.69711         0.64138
H         30.73027        20.32388        -0.26687
H         32.87246        19.10066        -0.01533
