         404
 CSIRO Nanostructure Databank - Neutral Graphene Oxide Data Set
C          1.24541         2.02092         1.07316
C          1.20479         3.41532         0.94250
C          2.45680         1.34926         1.12359
C          2.38886         4.18170         0.87397
C          1.17076         6.35711         0.72744
C          1.15557         7.75326         0.69874
C          2.36033         5.62125         0.77805
C          2.35361         8.51441         0.56989
C          1.13031        10.71432         0.39345
C          1.11584        12.07278         0.32529
C          2.35091         9.94719         0.50125
C          2.31940        12.86077         0.62754
C          1.26551        15.06374         0.03751
C          1.31193        16.45035        -0.05352
C          2.40437        14.31947         0.38632
C          2.50259        17.14314         0.25910
C          2.53273        18.59581         0.23674
C          3.68028         2.07133         1.02594
C          3.64747         3.49719         0.90858
C          4.91785         1.38822         1.03008
C          4.88420         4.21326         0.75696
C          3.64333         6.38969         0.98694
C          3.59552         7.81864         0.49664
C          4.89024         5.62851         0.62017
C          4.76848         8.50058         0.13522
C          3.58999        10.62471         0.41192
C          3.63871        12.07492         0.66679
C          4.76785         9.91807         0.07970
C          4.90519        12.81863         0.49365
C          3.65421        14.98657         0.59166
C          3.66690        16.41551         0.57157
C          4.88275        14.22657         0.67704
C          4.85790        17.18453         1.10545
C          3.67769        19.30589         0.44100
C          4.93100        18.64289         0.70214
C          6.13917         2.07706         0.87025
C          6.11378         3.50486         0.69723
C          7.37662         1.38807         0.85445
C          7.33921         4.21338         0.51641
C          6.07659         6.30940         0.30800
C          6.00420         7.72274        -0.13997
C          7.32076         5.62790         0.26370
C          7.29396         8.44356        -0.46079
C          5.96603        10.70177        -0.29331
C          6.05306        12.10690         0.09492
C          7.31471         9.93695        -0.58724
C          7.37161        12.77535         0.00767
C          6.17185        14.95564         0.70687
C          6.17090        16.44101         0.84011
C          7.42314        14.24322         0.26085
C          7.33088        17.22830         0.32360
C          6.12290        19.32886         0.75155
C          7.40420        18.65825         0.70808
C          8.59801         2.07910         0.71832
C          8.56226         3.50158         0.59472
C          9.84095         1.36268         0.62416
C          9.81267         4.25330         0.53599
C          8.56143         6.35030         0.04707
C          8.57281         7.75923        -0.18019
C          9.79604         5.67108         0.13973
C          9.77816         8.48662        -0.17215
C          8.58071        10.64229        -0.43751
C          8.54714        12.13043        -0.73107
C          9.78394         9.94448        -0.25683
C          9.83978        12.83977        -0.34652
C          8.56220        14.99289        -0.44148
C          8.57682        16.50112        -0.12951
C          9.85479        14.23959        -0.18767
C          9.83095        17.17873         0.21150
C          8.62183        19.29682         0.65354
C          9.85887        18.56088         0.49384
C         11.05929         1.99228         0.37575
C         11.09955         3.47418         0.40152
C         12.29379         1.30067         0.25354
C         12.22348         4.16791        -0.28425
C         11.02323         6.35817        -0.05159
C         11.02076         7.78163        -0.13711
C         12.26392         5.64923        -0.21647
C         12.25978         8.48603        -0.18950
C         11.03076        10.64700        -0.18414
C         11.03581        12.10129        -0.15825
C         12.26091         9.92049        -0.14206
C         12.24515        12.80070         0.08518
C         11.04335        14.92134         0.12921
C         11.01320        16.36078         0.46462
C         12.27197        14.21165         0.21086
C         12.34771        17.10822         0.59086
C         11.10975        19.24591         0.56524
C         12.33737        18.57595         0.44971
C         13.51413         1.96284        -0.00416
C         13.47881         3.36406        -0.49544
C         14.76094         1.33974         0.13446
C         14.76116         4.11171        -0.67579
C         13.46100         6.34292        -0.37167
C         13.49024         7.77447        -0.25467
C         14.73226         5.63412        -0.64260
C         14.73715         8.47599        -0.23924
C         13.50731        10.59116        -0.03500
C         13.49161        12.03422         0.25486
C         14.74021         9.89627        -0.09713
C         14.80004        12.78385         0.18942
C         13.53812        14.94038         0.24478
C         13.56873        16.35467         0.28006
C         14.76425        14.24844         0.03209
C         14.77224        17.06944         0.09129
C         13.57215        19.23397         0.26160
C         14.78616        18.51826         0.12136
C         15.99391         2.04847         0.00036
C         16.01598         3.43786        -0.30788
C         17.23598         1.38705         0.19841
C         17.22395         4.16964        -0.28535
C         16.00083         6.34265        -0.39461
C         15.98391         7.75666        -0.28871
C         17.21332         5.61780        -0.36204
C         17.22639         8.46182        -0.24962
C         16.00580        10.61306        -0.11459
C         16.03040        12.04179        -0.14040
C         17.22675         9.91090        -0.22879
C         17.20917        12.74236        -0.39337
C         15.95454        14.93859        -0.20468
C         15.98134        16.35606        -0.14141
C         17.17778        14.21683        -0.71244
C         17.23265        17.04984        -0.17989
C         16.02311        19.18542        -0.02780
C         17.24191        18.48267        -0.13028
C         18.44214         2.06839         0.10953
C         18.45820         3.47686        -0.09623
C         19.71934         1.28320         0.28924
C         19.70248         4.20054        -0.14608
C         18.44984         6.33031        -0.28122
C         18.43814         7.74707        -0.27108
C         19.69278         5.60708        -0.23849
C         19.73457         8.48775        -0.06571
C         18.45601        10.63059        -0.37723
C         18.44169        12.04596        -0.49994
C         19.70294         9.93498        -0.49303
C         19.67675        12.76886        -0.64326
C         18.46667        14.93270        -0.38121
C         18.45699        16.30979        -0.20221
C         19.69729        14.19032        -0.51056
C         19.71459        17.03788         0.21814
C         18.48828        19.17235        -0.25158
C         19.71121        18.50003        -0.21637
C         20.98302         2.07654         0.05649
C         20.95210         3.48777        -0.12912
C         22.19161         1.39323         0.06115
C         22.18133         4.19642        -0.32633
C         20.93660         6.32982        -0.40303
C         20.92833         7.70999        -0.53058
C         22.18052         5.60561        -0.50367
C         22.13423         8.40635        -0.99003
C         20.87490        10.63090        -0.76598
C         20.89692        12.06203        -0.80580
C         22.12459         9.90935        -1.10432
C         22.12989        12.76568        -0.99332
C         20.93594        14.86490        -0.57409
C         20.99678        16.28948        -0.16001
C         22.12093        14.17521        -0.92706
C         22.23270        17.06796        -0.43992
C         20.92254        19.19810        -0.39225
C         22.17442        18.54949        -0.47712
C         23.43204         2.05967        -0.14184
C         23.42136         3.48495        -0.34866
C         24.64692         1.34906        -0.15073
C         24.63522         4.17410        -0.57274
C         23.40923         6.31208        -0.69201
C         23.42852         7.71929        -0.90364
C         24.64127         5.59672        -0.74010
C         24.62915         8.44021        -1.07685
C         23.41533        10.61850        -1.07429
C         23.39836        12.04336        -1.11005
C         24.62724         9.89625        -1.13917
C         24.61396        12.73473        -1.23372
C         23.32619        14.94059        -1.36166
C         23.37130        16.42912        -1.17433
C         24.61695        14.17804        -1.67431
C         24.66937        17.15887        -1.15542
C         23.38485        19.21500        -0.59957
C         24.64722        18.54333        -0.78044
C         25.88415         1.99851        -0.36486
C         25.87528         3.44031        -0.58246
C         27.09053         1.27406        -0.43156
C         27.05796         4.10616        -0.85452
C         25.83913         6.31094        -1.02829
C         25.86655         7.72258        -1.14931
C         27.04389         5.51176        -1.26405
C         27.12436         8.44951        -1.28081
C         25.86960        10.60967        -1.18287
C         25.85810        12.03886        -1.21476
C         27.12266         9.91139        -1.25785
C         27.09623        12.77175        -1.18654
C         25.86261        14.92338        -1.24202
C         25.85326        16.35397        -1.26825
C         27.08458        14.21576        -1.15718
C         27.12598        16.96438        -1.38723
C         25.78964        19.31789        -0.40636
C         27.09382        18.99564        -0.79247
C         28.34633         1.91146        -0.63663
C         28.33695         3.39824        -0.69302
C         29.55881         1.24498        -0.59909
C         29.60681         4.15018        -0.89043
C         28.38804         6.29715        -1.39472
C         28.33091         7.75977        -1.29073
C         29.62558         5.58984        -1.15564
C         29.62557         8.46221        -1.38341
C         28.32714        10.64860        -1.26336
C         28.33370        12.07466        -1.13633
C         29.63192         9.97716        -1.40311
C         29.58655        12.77986        -0.99804
C         28.33499        14.90826        -1.00234
C         28.34065        16.33438        -1.04415
C         29.57433        14.20487        -0.91650
C         29.53476        17.09957        -0.80953
C         28.32888        19.28334        -0.19839
C         29.51092        18.52127        -0.44869
C         30.84591         1.89770        -0.90669
C         30.87147         3.41359        -1.15654
C         32.11070         1.30082        -0.50299
C         32.12790         4.17807        -1.04937
C         30.85420         6.28474        -0.80385
C         30.86287         7.79765        -0.88460
C         32.13914         5.55536        -0.89908
C         32.14607         8.51986        -0.96518
C         30.88627        10.67125        -1.05515
C         30.84342        12.07962        -0.92120
C         32.12181         9.94493        -0.97567
C         32.06866        12.80437        -0.72410
C         30.79519        14.95218        -0.81085
C         30.75031        16.37459        -0.74800
C         32.05000        14.23524        -0.67167
C         32.00809        17.14216        -0.70162
C         30.72006        19.16086        -0.10493
C         31.97427        18.54543        -0.25213
C         33.34375         1.95277        -0.68202
C         33.36796         3.38593        -1.13020
C         34.53795         1.27682        -0.41797
C         34.64405         4.17245        -0.97198
C         33.36511         6.33297        -0.83485
C         33.35496         7.78284        -0.82365
C         34.59085         5.64302        -0.76379
C         34.59701         8.50158        -0.74099
C         33.36298        10.65885        -0.81242
C         33.32059        12.10577        -0.64728
C         34.57884         9.94075        -0.75680
C         34.49609        12.82821        -0.33237
C         33.26191        14.92824        -0.43110
C         33.31650        16.38878        -0.53707
C         34.47356        14.23971        -0.15919
C         34.48186        17.10694        -0.00779
C         33.16495        19.21447         0.02588
C         34.41423        18.53251         0.13072
C         35.87747         1.92233        -0.62351
C         35.76442         3.41367        -0.33993
C         36.93172         1.29210         0.24144
C         36.97656         4.16542         0.06226
C         35.79911         6.35794        -0.54005
C         35.81510         7.75838        -0.58811
C         37.06979         5.59380        -0.36150
C         37.12196         8.45799        -0.44978
C         35.85628        10.69953        -0.72203
C         35.81702        12.17823        -0.39176
C         37.14251         9.95988        -0.47135
C         36.97871        12.87691         0.21701
C         35.67520        14.96067         0.18605
C         35.65301        16.39215         0.30293
C         36.89165        14.23876         0.45592
C         36.84495        17.13332         0.65672
C         35.57037        19.24393         0.48423
C         36.79267        18.57191         0.71631
C         38.02741         2.00416         0.73650
C         38.17232         3.41812         0.50140
C         39.08422         1.34585         1.45542
C         39.30854         4.11113         0.92737
C         38.35472         6.29775        -0.03908
C         38.26077         7.74574         0.18685
C         39.48985         5.54265         0.59270
C         39.21504         8.43132         0.90774
C         38.16752        10.63867         0.36170
C         38.26939        12.13261         0.35538
C         38.99828         9.85179         1.10653
C         39.52872        12.86694         0.77593
C         38.06027        14.99326         1.00270
C         38.05441        16.47430         0.92626
C         39.38911        14.31137         1.18254
C         39.23983        17.21357         1.19624
C         37.95168        19.29984         1.04274
C         39.17531        18.64726         1.26646
C         40.16522         2.05039         1.93481
C         40.30034         3.44949         1.70317
C         41.29589         4.22672         2.39901
C         40.56330         6.32240         1.31287
C         40.47542         7.82069         1.34938
C         41.36203         5.58505         2.30893
C         41.65945         8.50817         1.50587
C         40.92286        10.86149         1.52800
C         40.85302        12.26301         1.17863
C         41.89481         9.92104         1.32805
C         41.95697        13.07698         1.19513
C         40.63005        15.13190         1.20856
C         40.51490        16.57517         1.36238
C         41.84880        14.49929         1.11009
C         41.63782        17.35722         1.65513
C         40.34959        19.39998         1.56194
C         41.55359        18.75865         1.76328
O         22.03336        16.48585         0.89684
O         29.78734         9.17277        -2.64288
O         35.88805         3.87405         1.04209
O         21.94362         9.07986        -2.31194
O         27.66154         5.75502        -2.56605
O         38.50371        14.51301         2.33424
O         30.68905         7.14462         0.41716
O         38.05576         5.84371        -1.40623
O         40.77285         5.81733        -0.06034
O          6.51370        15.62466         2.00464
O         36.04003        11.68219        -1.78455
O         12.52363         3.57670        -1.58677
O         27.18565        18.21569        -1.97532
O         39.72964        10.43478         2.14608
O         32.87485        16.89962        -1.85525
O          6.50257         7.82155        -1.52523
O          7.83544        13.31268         1.30504
O          2.94119        12.45782         1.89382
O         39.25583        12.63677        -0.64783
O         30.85066         2.50277        -2.27867
O         14.23422        12.36871         1.48615
O         34.23627         3.68873        -2.28665
O         37.57737         9.21082        -1.64420
O         22.97653        15.86307        -2.47608
O         10.73737         4.02831         1.69286
O          6.46181        10.43325        -1.64777
O         11.63683        16.63211         1.77156
O         29.08933         3.92341         0.50379
O          7.66964        17.15197        -1.10592
O         14.79369         4.88112        -1.91138
O         19.64886        17.07199         1.67156
H         20.58249        17.09404         1.98897
O          3.75299         6.52899         2.46562
H          2.93132         6.97029         2.77235
O         17.06488        14.26688        -2.18693
H         17.10246        15.21045        -2.45271
O          8.32109        12.28441        -2.15048
H          8.99715        11.76557        -2.63187
O          8.33531        14.86776        -1.86444
H          7.84633        15.67008        -2.16209
O          4.65834        17.23600         2.54633
H          5.12751        16.45103         2.92130
O         36.28042         1.78815        -2.02371
H         35.60859         2.27011        -2.56344
O         19.75099         0.71124         1.61393
H         19.77778         1.44573         2.26097
O         24.72858        14.09752        -3.12898
H         24.25740        14.88678        -3.48841
O         19.90187         8.56343         1.41243
H         19.09789         8.99755         1.77164
H          0.30333         1.45874         1.13754
H          0.22483         3.90977         0.91048
H          2.48543         0.25497         1.22294
H          0.20360         5.83505         0.71372
H          0.18462         8.26495         0.71809
H          0.18631        10.17251         0.24121
H          0.17495        12.59016         0.09139
H          0.31147        14.55080        -0.14529
H          0.40722        17.01548        -0.31838
H          1.59416        19.12182         0.00768
H          4.92663         0.29376         1.14183
H          3.67296        20.40251         0.34943
H          7.38213         0.29278         0.95313
H          6.11651        20.42664         0.65713
H          9.80610         0.26415         0.67245
H          8.68039        20.38130         0.82920
H         12.31228         0.21935         0.45714
H         11.10109        20.34499         0.61569
H         14.79847         0.28010         0.42759
H         13.59307        20.33338         0.22050
H         17.23985         0.30782         0.40925
H         16.04046        20.28555        -0.01657
H         19.70682         0.41115        -0.41774
H         18.47688        20.26360        -0.39812
H         22.19293         0.30530         0.22321
H         20.88887        20.29123        -0.52116
H         24.63211         0.25996         0.00378
H         23.39803        20.31233        -0.52051
H         27.06074         0.17959        -0.32363
H         25.62718        20.16091         0.28087
H         29.57813         0.17013        -0.36323
H         28.40879        20.13787         0.48958
H         32.09740         0.30526        -0.03520
H         30.68230        20.20202         0.24804
H         34.49123         0.22497        -0.09825
H         33.13215        20.28579         0.27347
H         36.87582         0.20755         0.42147
H         35.52872        20.33835         0.58245
H         39.00488         0.26457         1.63838
H         37.90039        20.39657         1.10762
H         40.93954         1.53462         2.52129
H         41.95069         3.69843         3.10826
H         42.04302         6.14801         2.96399
H         42.56548         7.89379         1.63592
H         42.88572        10.22830         0.96450
H         42.94772        12.63900         1.38683
H         42.78018        15.08077         1.09702
H         42.61478        16.88103         1.81258
H         40.27907        20.49516         1.62435
H         42.45799        19.33658         1.99811
