         424
 CSIRO Nanostructure Databank - Neutral Graphene Oxide Data Set
C          1.21158         3.35531         0.04922
C          0.02295         4.03591         0.04465
C          1.13978         6.21731         0.03909
C         -0.02329         5.46052         0.03290
C          1.13861         7.68165         0.06440
C         -0.03309         8.43819         0.26658
C          1.20983        10.53296         0.20530
C          0.01107         9.82784         0.39740
C          1.39550        12.02507         0.47332
C          0.11766        12.79676         0.65721
C          1.04526        14.80755        -0.47273
C         -0.01249        14.07055         0.26468
C          0.98071        16.30429        -0.62137
C         -0.12458        17.05709        -0.00477
C          1.21695        19.11827         0.07143
C         -0.01289        18.36921         0.27970
C          1.24677        20.52568         0.35953
C          0.03193        21.25234         0.62763
C          1.16230        23.40652         0.49735
C         -0.01186        22.62603         0.65552
C          1.16202        24.81844         0.55447
C          0.06524        25.59103         0.99295
C          1.27036        27.71244         0.65385
C          0.12771        26.98200         1.04172
C          1.33214        29.20556         0.91267
C          0.02637        29.92783         0.69986
C          1.22825        32.03103         0.33554
C          0.01333        31.26997         0.49382
C          1.24233        33.46200         0.46116
C          0.09686        34.16764         0.93567
C          1.33916        36.25425         0.97537
C          0.13867        35.52632         1.16609
C          1.40149        37.65812         1.24770
C          3.67025         3.40803        -0.10435
C          2.46774         4.06664         0.03527
C          3.59712         6.25106         0.15051
C          2.41307         5.53135         0.07356
C          3.62500         7.67199        -0.01135
C          2.36494         8.38525        -0.09446
C          3.60361        10.51004        -0.50901
C          2.36303         9.80277        -0.13660
C          3.64767        11.97977        -0.52390
C          2.29693        12.63169        -0.63019
C          3.53962        14.81916        -0.76796
C          2.36791        14.13638        -0.60173
C          3.56740        16.33548        -0.67102
C          2.24024        17.08202        -1.02539
C          3.61651        19.15750        -0.50422
C          2.35997        18.47418        -0.41351
C          3.67082        20.54668        -0.13222
C          2.46764        21.21691         0.27353
C          3.74080        23.42441         0.39871
C          2.45315        22.67532         0.50263
C          3.66655        24.82805        -0.11714
C          2.34562        25.55248         0.05550
C          3.60298        27.68187        -0.18808
C          2.40622        27.01856         0.18067
C          3.52319        29.12788        -0.40100
C          2.42503        29.90441         0.13603
C          3.66080        32.02161        -0.27448
C          2.43174        31.30432         0.04406
C          3.59528        33.51834        -0.49212
C          2.43643        34.19186         0.21049
C          3.73530        36.30452         0.32766
C          2.49519        35.56858         0.49818
C          3.77610        37.71226         0.67484
C          2.57217        38.35798         1.10660
C          6.23555         3.46888         0.05786
C          4.95505         4.19263        -0.27275
C          6.11302         6.31291         0.45609
C          4.84930         5.49716         0.50748
C          6.07965         7.67243         0.35432
C          4.84512         8.35562         0.05447
C          6.12932        10.55885        -0.11401
C          4.90910         9.76600        -0.33844
C          6.10429        11.96386        -0.35368
C          4.84126        12.66654        -0.55611
C          6.02363        14.81300        -0.85377
C          4.83434        14.12511        -0.72744
C          6.06669        16.24175        -1.27701
C          4.75049        17.03030        -1.40884
C          6.03887        19.17413        -0.92984
C          4.82916        18.48398        -0.90651
C          6.07569        20.58009        -0.63785
C          4.90474        21.25031        -0.24539
C          6.14746        23.46420        -0.41683
C          5.06332        22.66881         0.27359
C          6.12982        24.87682        -0.45544
C          4.91065        25.59831        -0.27403
C          6.08174        27.74654        -0.56635
C          4.83834        27.00011        -0.42302
C          6.09305        29.14817        -0.52693
C          4.86894        29.90813        -0.66268
C          6.11679        32.09903        -0.85049
C          4.84859        31.36561        -0.46328
C          6.11338        33.54646        -0.41696
C          4.91785        34.22109        -0.27557
C          6.13731        36.42929        -0.37598
C          4.90015        35.63992        -0.04160
C          6.21079        37.76368         0.32846
C          4.99905        38.38842         0.71238
C          8.66245         3.49897         0.32934
C          7.39795         4.14547         0.37611
C          8.62369         6.36325         0.50532
C          7.37294         5.59014         0.85266
C          8.58788         7.75644         0.47537
C          7.29606         8.48157         0.75260
C          8.53044        10.63777         0.32404
C          7.30843         9.91094         0.25962
C          8.53710        12.04339         0.02274
C          7.32427        12.68237        -0.31720
C          8.62765        14.84911        -0.76553
C          7.31633        14.07857        -0.80864
C          8.61105        16.33175        -0.78747
C          7.37393        17.00052        -1.28375
C          8.56734        19.20393        -0.86452
C          7.33236        18.52903        -1.42634
C          8.55576        20.61704        -0.81940
C          7.31730        21.32550        -0.74581
C          8.55184        23.47980        -0.95979
C          7.33367        22.74859        -0.70833
C          8.53849        24.87718        -1.03051
C          7.33808        25.61196        -0.75919
C          8.54910        27.79536        -0.81723
C          7.32155        27.02552        -0.69173
C          8.57552        29.14545        -0.60708
C          7.34401        29.87859        -0.11826
C          8.56482        32.04382        -0.32385
C          7.37876        31.36278        -0.45231
C          8.62879        33.48953        -0.35015
C          7.38813        34.25144        -0.34100
C          8.68923        36.39772        -0.45198
C          7.40918        35.62895        -0.26529
C          8.68274        37.73961         0.25396
C          7.43801        38.37906         0.52677
C         11.12135         3.57273         0.22918
C          9.88009         4.22613         0.34352
C         11.07206         6.41169         0.26196
C          9.85371         5.67147         0.37995
C         11.04130         7.83873         0.34611
C          9.79883         8.51711         0.45339
C         10.95706        10.69724         1.01284
C          9.74537         9.93981         0.55829
C         10.99017        12.13356         0.50853
C          9.79008        12.78239         0.08093
C         11.01431        14.91346        -0.07584
C          9.81959        14.16476        -0.21797
C         11.01048        16.34616        -0.21765
C          9.76025        17.04039        -0.51353
C         10.96839        19.21667        -0.42730
C          9.76707        18.50240        -0.60768
C         11.00492        20.62357        -0.61275
C          9.78850        21.33872        -0.77622
C         11.03591        23.43194        -1.02119
C          9.80814        22.75441        -0.95753
C         11.10344        24.85168        -1.53371
C          9.77433        25.60905        -1.41437
C         11.08925        27.77968        -0.99826
C          9.79172        27.09941        -1.24979
C         11.09697        29.17526        -0.79257
C          9.80657        29.95968        -0.91977
C         11.11205        32.02163        -0.29320
C          9.83545        31.24530        -0.08176
C         11.11345        33.41715        -0.20324
C          9.86730        34.16045        -0.23461
C         11.12748        36.25046         0.08365
C          9.92194        35.58573        -0.15245
C         11.13971        37.67667         0.36659
C          9.88298        38.35581         0.53643
C         13.58211         3.62277         0.02403
C         12.33676         4.29942         0.11726
C         13.54554         6.49915        -0.23804
C         12.30243         5.72607         0.11283
C         13.53414         7.91663         0.26930
C         12.28224         8.58993         0.41901
C         13.49012        10.65705         0.99898
C         12.24338         9.94983         0.74433
C         13.45871        12.19719         0.95909
C         12.19142        12.85040         0.56243
C         13.46321        14.96028         0.25873
C         12.22720        14.24016         0.24777
C         13.45215        16.36382         0.06882
C         12.20833        17.04900        -0.07663
C         13.48397        19.21251        -0.34639
C         12.20571        18.54203         0.09504
C         13.48909        20.60247        -0.56476
C         12.25029        21.33400        -0.62717
C         13.51100        23.45842        -0.81881
C         12.25801        22.73366        -0.83521
C         13.51424        24.87458        -0.79716
C         12.29322        25.61237        -0.96480
C         13.50818        27.73049        -0.33212
C         12.27307        27.00121        -0.83305
C         13.57928        29.13449        -0.92220
C         12.30262        29.88784        -0.63301
C         13.58779        31.98652        -0.32510
C         12.32955        31.29115        -0.42345
C         13.59303        33.39692        -0.12479
C         12.36237        34.12133        -0.10355
C         13.59880        36.21733         0.29334
C         12.36914        35.52612         0.09696
C         13.59393        37.63949         0.53852
C         12.34061        38.32972         0.59070
C         16.04733         3.63687         0.15169
C         14.81431         4.33064         0.07012
C         16.01906         6.46612         0.24578
C         14.81611         5.75937         0.08388
C         16.01636         7.90388         0.37706
C         14.76172         8.60003         0.45395
C         15.97764        10.72679         0.80120
C         14.77132         9.99256         0.75997
C         15.96162        12.17627         0.81889
C         14.73185        12.88378         0.72489
C         15.93894        14.98810         0.38232
C         14.71110        14.27093         0.44993
C         15.92520        16.39069         0.11118
C         14.69483        17.08363        -0.02200
C         15.93984        19.15257        -0.57862
C         14.69950        18.48661        -0.31184
C         15.94893        20.57542        -0.80167
C         14.72813        21.30143        -0.73181
C         15.98640        23.41693        -0.71313
C         14.74036        22.73041        -0.76895
C         15.99745        24.84761        -0.60870
C         14.77007        25.57179        -0.64641
C         16.01960        27.67577        -0.54363
C         14.79739        26.97935        -0.55444
C         16.03384        29.13175        -0.44315
C         14.84155        29.85397        -0.50871
C         16.05317        31.96428        -0.11410
C         14.82125        31.26780        -0.33386
C         16.05745        33.37753         0.06409
C         14.82824        34.09375         0.05859
C         16.06367        36.20164         0.47718
C         14.82675        35.50804         0.26936
C         16.04338        37.61625         0.74479
C         14.79799        38.30621         0.76455
C         18.52014         3.63499         0.31520
C         17.26291         4.32934         0.25879
C         18.48372         6.47304         0.45140
C         17.25698         5.75769         0.32700
C         18.48339         7.90027         0.53484
C         17.23013         8.61097         0.53575
C         18.45642        10.75667         0.74300
C         17.22211        10.03462         0.68743
C         18.44439        12.18464         0.82219
C         17.18721        12.89399         0.78185
C         18.39777        15.05312         0.57217
C         17.17490        14.31436         0.60599
C         18.40938        16.39089         0.15735
C         17.16505        17.07812        -0.07473
C         18.41835        19.06200        -0.89147
C         17.15328        18.43265        -0.47401
C         18.41542        20.53580        -1.25223
C         17.17185        21.28333        -0.98219
C         18.48237        23.36441        -0.69445
C         17.20973        22.68471        -0.82576
C         18.46234        24.76939        -0.12865
C         17.22564        25.55361        -0.49038
C         18.54391        27.68855        -0.70025
C         17.24269        26.94676        -0.52572
C         18.50804        29.12136        -0.22129
C         17.28303        29.82072        -0.22832
C         18.50954        31.94230         0.11719
C         17.27768        31.24108        -0.06506
C         18.51140        33.36660         0.20503
C         17.30230        34.07524         0.22107
C         18.52009        36.20413         0.66139
C         17.29362        35.50696         0.43272
C         18.48591        37.60431         0.96806
C         17.25099        38.28696         0.99801
C         19.69818         4.32286         0.42226
C         20.92429         6.47749         0.60116
C         19.71346         5.75503         0.49147
C         20.92033         7.85959         0.67102
C         19.71092         8.60103         0.64303
C         20.89104        10.79755         0.78953
C         19.70106        10.05406         0.72098
C         20.87030        12.18834         0.89181
C         19.66567        12.89792         0.90208
C         20.89564        15.11931         0.75172
C         19.63519        14.39596         1.14062
C         20.89302        16.37950         0.27507
C         19.66738        17.10375        -0.02508
C         20.90150        19.17404        -0.68317
C         19.68699        18.39991        -0.52466
C         20.92751        20.48116        -1.02862
C         19.72617        21.30434        -1.43488
C         20.91687        23.39026        -0.56113
C         19.68525        22.69530        -0.81924
C         20.95644        24.73577        -0.29829
C         19.76036        25.52715        -0.28924
C         20.97429        27.67904        -0.08085
C         19.77209        26.91469        -0.27120
C         20.95560        29.03900         0.05154
C         19.72633        29.80228         0.02911
C         20.91166        31.93009         0.67068
C         19.72624        31.20741         0.24495
C         20.95043        33.28047         0.70103
C         19.83205        34.09784         0.10407
C         20.94577        36.25100         0.80204
C         19.77733        35.53511         0.58057
C         20.91066        37.62543         1.13354
C         19.70903        38.29386         1.21419
O          8.14844        14.22802        -2.01280
O          6.87180        16.36800        -2.51423
O         18.31139        19.51999        -2.30588
O          3.97585        29.50110        -1.73808
O          2.76915        25.01366        -1.25939
O          4.30611         9.95236        -1.67335
O         13.43529        11.48396         2.24240
O          9.60596        26.49504        -2.58978
O          3.19842        23.20258         1.73965
O          0.53647        15.41804        -1.70359
O          4.69173         5.10405         1.92388
H          4.31011         5.87123         2.40123
O          3.76467        16.59803         0.75080
H          4.31435        15.88170         1.13211
O          2.03035        17.30150        -2.42648
H          2.82969        17.71228        -2.82622
O         13.35569        27.88379         1.10955
H         13.40114        26.99283         1.51489
O         13.51700         6.61379        -1.72744
H         13.58729         5.70189        -2.08345
O          6.00193        36.76629        -1.82113
H          5.71538        35.94617        -2.27981
O         13.64770        28.97270        -2.36924
H         13.67106        29.86467        -2.77427
O          2.15585        12.13243         1.71147
H          1.59577        11.79864         2.44302
O          7.20648         8.56004         2.22003
H          7.35988         7.64348         2.55640
O          8.75792        36.70430        -1.89030
H          7.84853        36.99328        -2.15509
O          4.48867        17.08648        -2.82649
H          5.36150        17.02389        -3.28434
O          5.59702        22.50157         1.62741
H          4.81196        22.51712         2.22975
O         19.52314        14.54228         2.60334
H         19.43549        15.49986         2.79547
O          7.35842        29.81021         1.35493
H          8.26742        30.09312         1.63778
O         12.15727        18.74020         1.56525
H         12.16498        19.70824         1.72577
O          7.39591        18.84276        -2.85259
H          7.35122        17.99348        -3.34838
O          6.09872        32.13364        -2.31725
H          5.24620        32.55080        -2.57946
O          9.87306        30.82575         1.32319
H         10.08107        31.61382         1.86816
O         10.82563        10.79550         2.47941
H         11.69698        11.13041         2.81043
O         18.69960        27.80171        -2.16785
H         19.53856        28.28264        -2.33320
O          1.66645        29.33471         2.34710
H          1.68179        30.29375         2.55311
O          3.34215        33.66193        -1.94428
H          2.48037        33.23051        -2.13137
O         11.38790        24.69763        -2.95534
H         10.98461        25.47952        -3.40260
O          5.04956         4.53916        -1.69139
H          5.08078         3.70536        -2.20492
O          9.69990        30.38318        -2.30567
H          9.59620        29.58302        -2.86300
O         19.88029        21.53604        -2.86524
H         19.53423        20.72784        -3.30994
O          7.35350         5.54788         2.32494
H          6.48933         5.12616         2.56229
O         20.12647        34.18858        -1.33892
H         20.12560        33.27340        -1.69187
O          1.68707        12.24788        -1.88707
H          2.16872        12.69205        -2.61575
O         18.34336        24.57648         1.33701
H         19.15501        24.11012         1.63105
H          1.22524         2.25572         0.04618
H         -0.92588         3.48047         0.04297
H         -1.00724         5.94929         0.01860
H         -0.99990         7.93035         0.38890
H         -0.91912        10.36612         0.62679
H         -0.71022        12.31390         1.19951
H         -0.96832        14.58766         0.43119
H         -1.07926        16.54222         0.16958
H         -0.87840        18.87889         0.72104
H         -0.91539        20.70903         0.72617
H         -0.98355        23.12732         0.76596
H         -0.84212        25.09027         1.35790
H         -0.73819        27.52002         1.45114
H         -0.92483        29.38825         0.80797
H         -0.95345        31.78974         0.42736
H         -0.83499        33.62190         1.13424
H         -0.75684        36.05256         1.52715
H          0.48950        38.16781         1.59151
H          3.67777         2.32122        -0.28555
H          2.60832        39.43105         1.34466
H          6.30686         2.40385        -0.22326
H          5.03691        39.40528         1.13260
H          8.69877         2.41385         0.14442
H          7.45960        39.39326         0.95796
H         11.15342         2.47331         0.21035
H          9.88968        39.37259         0.95971
H         13.59590         2.52324         0.02326
H         12.33932        39.40434         0.82761
H         16.04781         2.53671         0.13245
H         14.79088        39.38757         0.96740
H         18.51895         2.53628         0.26598
H         17.23622        39.36541         1.21551
H         20.65584         3.78323         0.45973
H         21.87715         5.92944         0.63061
H         21.88255         8.38181         0.75672
H         21.86533        10.29173         0.77894
H         21.82965        12.71622         0.97211
H         21.86182        14.64402         0.97327
H         21.85698        16.86797         0.07561
H         21.86285        18.67970        -0.48224
H         21.91212        20.95420        -1.15656
H         21.86624        22.84475        -0.64106
H         21.93691        25.22524        -0.21612
H         21.93480        27.15598         0.02914
H         21.90545        29.56513         0.21670
H         21.77901        31.35953         1.03303
H         21.85941        33.78646         1.05691
H         21.92434        35.76086         0.70514
H         21.85460        38.15993         1.31020
H         19.67943        39.36641         1.45454
