         314
 CSIRO Nanostructure Databank - Neutral Graphene Oxide Data Set
C         30.89942        56.93976        -1.46965
C         30.31710        58.17412        -1.24126
C         29.61460        59.03837        -2.13171
C         30.62245        61.16380        -1.25735
C         29.66687        60.41990        -1.99537
C         33.22420        52.84645        -0.22399
C         33.11875        54.25956        -0.06230
C         32.04856        54.97131        -0.67023
C         32.84410        57.13384         0.19220
C         31.90042        56.36891        -0.59753
C         32.86756        58.55233         0.27259
C         31.71182        59.30862        -0.07024
C         32.87940        61.51339        -0.18070
C         31.69658        60.64052        -0.52208
C         35.35490        48.40423         0.16210
C         34.97038        49.65276         0.64282
C         34.18061        50.65802         0.05783
C         35.35752        52.73307         1.01511
C         34.23614        52.05395         0.36567
C         35.43167        54.25205         0.79290
C         34.10308        54.95658         0.66306
C         35.17136        57.22635         1.34672
C         33.93746        56.40066         0.86578
C         35.22760        58.65515         1.00553
C         34.07743        59.30884         0.58064
C         35.26027        61.46073         0.40726
C         34.10577        60.74422         0.29222
C         37.80796        44.19518         0.73402
C         37.81207        45.63314         1.13886
C         36.59068        46.35667         0.64655
C         37.77475        48.48806         0.96614
C         36.54554        47.73840         0.66127
C         37.82401        49.90312         1.16931
C         36.65741        50.65897         1.50008
C         37.81786        52.80633         1.62461
C         36.53904        52.07713         1.39094
C         37.81001        54.29198         1.68234
C         36.47298        54.99086         1.62343
C         37.75932        57.25993         1.68366
C         36.44662        56.49228         1.70771
C         37.76634        58.69477         1.35670
C         36.46624        59.40461         1.31660
C         37.78059        61.52994         0.77735
C         36.48193        60.89685         0.98758
C         40.07170        39.94210        -0.03280
C         40.17781        41.36849         0.16685
C         38.98799        42.10932         0.21186
C         40.22115        44.24784         0.25497
C         38.97620        43.52327         0.40506
C         40.22241        45.67638         0.32333
C         39.04986        46.37709         0.69459
C         40.23910        48.51761         0.51593
C         39.02143        47.79189         0.75463
C         40.25066        49.96798         0.64034
C         39.05943        50.61606         1.01823
C         40.31196        52.83775         0.89445
C         39.10109        52.05755         1.33568
C         40.19026        54.30251         0.64858
C         38.97834        55.03933         1.11082
C         40.19616        57.25763         0.81485
C         39.06657        56.50772         1.38791
C         40.19105        58.63749         0.85511
C         38.96083        59.36662         1.11608
C         40.21262        61.52331         0.86687
C         38.97306        60.82666         0.91213
C         42.79328        35.76015         0.35876
C         42.70910        37.16859         0.30053
C         41.41097        37.74346         0.03742
C         42.88216        40.14234         0.52413
C         41.06834        39.05456         0.39533
C         42.71492        41.45923         0.05862
C         41.43847        42.10373         0.13234
C         42.62214        44.24444        -0.33840
C         41.41715        43.52892         0.00801
C         42.60285        45.67434        -0.39213
C         41.41905        46.39941        -0.00994
C         42.57222        48.59863        -0.32824
C         41.39102        47.81797         0.10463
C         42.74220        49.99713         0.23927
C         41.43972        50.72402         0.35793
C         42.60610        52.88359        -0.08874
C         41.46430        52.12602         0.31026
C         42.57916        54.32623        -0.02043
C         41.43441        55.03553         0.37921
C         42.63098        57.25684         0.02593
C         41.33602        56.49817         0.23765
C         42.68665        58.67818         0.37816
C         41.37100        59.41936         0.28919
C         42.66363        61.45119         1.02433
C         41.45233        60.83834         0.79408
C         45.17593        33.08413         1.47721
C         43.99391        33.70242         1.07224
C         45.22270        35.78521         0.72066
C         44.00005        35.07164         0.69984
C         45.25252        37.16731         0.12746
C         43.94570        37.92641         0.33887
C         45.19140        40.03372        -0.22199
C         44.00921        39.33229         0.24423
C         45.10438        41.36690        -0.64747
C         43.88050        42.12740        -0.46493
C         44.99483        44.24593        -1.17689
C         43.80728        43.51698        -0.66829
C         45.00901        45.70950        -0.99802
C         43.81989        46.37705        -0.70860
C         45.11842        48.58100        -0.73571
C         43.79756        47.85697        -0.74783
C         45.10652        50.08394        -0.63090
C         43.83831        50.80807        -0.40950
C         45.02539        52.97201        -0.86122
C         43.82516        52.20132        -0.47399
C         44.93113        54.42935        -0.84129
C         43.78195        55.04416        -0.34387
C         45.19607        57.20229        -0.04251
C         43.88490        56.46107         0.04154
C         45.14401        58.66841         0.14416
C         43.89738        59.31200         0.51404
C         45.19350        61.44569         0.80037
C         43.94926        60.68100         1.14982
C         46.37394        33.79875         1.52723
C         47.64495        35.91103         1.20484
C         46.41688        35.16191         1.14019
C         47.74356        37.25509         0.86583
C         46.43390        38.02017         0.61532
C         47.55823        39.90100        -0.71986
C         46.44320        39.30888        -0.20707
C         47.65375        41.31150        -1.13603
C         46.30742        42.02757        -1.21659
C         47.63093        44.22627        -1.48185
C         46.28983        43.51818        -1.39269
C         47.58075        45.73293        -1.35243
C         46.27898        46.38840        -1.02272
C         47.53127        48.22577        -0.05321
C         46.30745        47.69607        -0.56036
C         47.45527        50.40949         0.11603
C         46.30245        50.93048        -0.40585
C         47.58705        52.90197        -1.01361
C         46.27192        52.30078        -0.84818
C         47.76740        54.07652        -1.76304
C         46.00048        55.30078        -1.29945
C         47.54066        57.37861        -0.94989
C         46.30919        56.59178        -0.82854
C         47.56111        58.69563        -0.31587
C         46.33337        59.37398         0.06786
C         47.62284        61.45346         0.51873
C         46.36100        60.79083         0.43775
C         48.95064        37.96514         1.16131
C         49.89201        40.33546         0.83682
C         49.26294        39.16286         0.46197
C         49.88985        41.58262         0.07618
C         48.90183        42.06306        -0.81493
C         50.28464        44.29012        -1.13298
C         48.95676        43.49215        -1.27458
C         50.15025        45.78601        -0.82430
C         48.87338        46.49367        -1.08001
C         49.99267        48.70760        -0.48881
C         48.78248        47.80295        -0.39348
C         49.91552        50.14236         0.04298
C         48.77252        50.93598        -0.03911
C         50.03229        52.94748        -0.65819
C         48.79316        52.30377        -0.52246
C         50.15516        54.16923        -1.35463
C         48.98362        54.72302        -1.90663
C         50.04983        57.49232        -1.12215
C         48.80735        56.96094        -1.52152
C         50.03405        58.63855        -0.19297
C         48.76865        59.37022        -0.05955
C         50.07905        61.40473         0.60583
C         48.82158        60.74325         0.37824
C         51.02254        42.41339         0.38171
C         52.42206        44.39882         0.15789
C         51.24749        43.67459        -0.14392
C         52.50724        45.79005        -0.08504
C         51.26171        46.49917        -0.40225
C         52.46558        48.62644        -0.05157
C         51.27721        47.94999        -0.21772
C         52.50015        50.09885         0.16774
C         51.20268        50.85595         0.20801
C         52.54578        53.04171        -0.20225
C         51.22774        52.34068        -0.03759
C         52.59433        54.35820        -0.89996
C         51.43407        54.79686        -1.51009
C         52.56004        57.35502        -0.90486
C         51.33339        56.93746        -1.46108
C         52.56065        58.79878        -0.52874
C         51.32834        59.34284         0.10774
C         52.56333        61.45298         0.62990
C         51.31587        60.78522         0.44906
C         53.70352        46.50387         0.06658
C         54.93429        48.65322        -0.03339
C         53.73985        47.92604        -0.01111
C         54.97913        50.08751        -0.14303
C         53.75946        50.84166        -0.09340
C         55.00704        52.94852        -0.41239
C         53.78892        52.23904        -0.22659
C         55.03281        54.39255        -0.54102
C         53.79950        55.14030        -0.80043
C         54.99006        57.28651        -0.39669
C         53.75327        56.56524        -0.81325
C         55.09664        58.78836        -0.53094
C         53.82300        59.56461        -0.38041
C         55.04089        61.45376         0.69069
C         53.80745        60.85412         0.35935
C         56.19191        50.78468        -0.24788
C         57.46169        52.89927        -0.30802
C         56.23464        52.20513        -0.34264
C         57.50560        54.31813        -0.29691
C         56.26707        55.05021        -0.44947
C         57.57390        57.25745        -0.32211
C         56.27608        56.51385        -0.25624
C         57.58572        58.65775         0.12705
C         56.36109        59.45755        -0.09450
C         57.48607        61.37883         0.96375
C         56.29104        60.81423         0.50551
C         58.72119        54.98055        -0.04188
C         59.99811        57.12788         0.47063
C         58.86339        56.43136        -0.12357
C         59.97015        58.48947         0.73950
C         58.74536        59.26328         0.56894
C         59.88930        61.24872         1.47171
C         58.71629        60.66057         0.98083
C         61.12389        59.16164         1.26600
C         61.07935        60.50011         1.59884
O         58.41266        56.95886        -1.45188
O         48.89697        55.98034        -2.53975
O         50.75424        58.44120         1.10085
O         48.30832        46.41797        -2.43794
O         48.72809        39.17102        -0.84445
O         48.40173        43.73147        -2.60969
O         34.09980        56.88269         2.25245
O         37.93910        53.52700         2.90553
O         41.92974        39.62615         1.38136
O         45.42685        43.85642        -2.53601
O         42.86740        48.42177        -1.74055
O         51.81091        53.09757         1.07431
O         55.48470        56.89016         0.93592
O         44.75393        56.57361         1.23109
O         51.44163        55.88991        -2.39526
O         38.69158        56.88403         2.73826
O         53.04307        59.64360        -1.63357
O         46.94631        41.46290        -2.41217
O         46.69975        54.73355        -2.37522
O         55.97222        59.34233        -1.54325
O         36.29346        60.39663         2.37269
O         35.53412        49.97614         1.91566
O         40.14194        52.43661         2.29752
O         36.17973        55.64073         2.87115
O         51.87437        50.47435         1.46034
O         30.47487        58.67252         0.07353
O         47.36228        49.24831         0.88012
O         45.25031        49.40421        -1.95793
O         39.11371        54.70065        -0.31220
O         41.76918        56.95333        -1.12351
O         46.06330        38.44300         1.96339
H         46.85144        38.84430         2.38620
O         43.20878        49.75094         1.62309
H         43.07710        50.57740         2.13625
O         41.10509        59.56012        -1.14382
H         41.17258        58.65157        -1.53272
O         36.01800        54.37150        -0.56511
H         35.42989        53.88638        -1.18473
O         50.06311        48.99994        -1.94590
H         49.70972        48.22485        -2.43858
O         45.41993        37.00389        -1.31054
H         44.72661        36.38902        -1.62998
O         33.22050        62.37378        -1.27461
H         33.43484        61.81886        -2.05181
O         37.79381        45.65616         2.62123
H         37.68166        46.59229         2.89306
O         44.09003        60.41738         2.60415
H         44.84906        59.80578         2.72008
O         50.93558        44.20840        -2.42595
H         50.22186        44.29052        -3.10129
H         30.62068        56.36514        -2.36559
H         29.07052        58.60619        -2.98448
H         30.65131        62.24571        -1.46027
H         29.02980        61.00936        -2.67310
H         32.43471        52.33716        -0.79546
H         31.32705        54.40069        -1.27350
H         32.56884        62.19536         0.65972
H         34.77891        47.91315        -0.63571
H         33.50532        50.36414        -0.75978
H         35.27619        62.50529         0.05995
H         36.86855        43.63000         0.83489
H         35.69833        45.78369         0.35522
H         37.80861        62.58990         0.48348
H         39.16294        39.55773        -0.51879
H         38.02726        41.57311         0.21412
H         40.20248        62.61998         0.96109
H         41.86376        35.17581         0.28386
H         40.66639        37.10592        -0.46166
H         42.67893        62.51017         1.32805
H         45.16245        32.02514         1.77100
H         43.04947        33.14033         1.05425
H         45.24973        62.50008         1.11261
H         47.29621        33.30523         1.86560
H         48.55290        35.37832         1.52697
H         47.64833        62.51401         0.80922
H         49.65649        37.54112         1.89302
H         50.46634        40.34809         1.77536
H         50.04832        62.47002         0.88125
H         51.77677        42.00010         1.06891
H         53.25488        43.88784         0.66496
H         52.54864        62.47734         1.03324
H         54.64150        45.95277         0.23139
H         55.88934        48.10665        -0.01389
H         55.03141        62.43926         1.18129
H         57.14016        50.22742        -0.22401
H         58.40085        52.33368        -0.21982
H         57.46854        62.39530         1.38621
H         59.60203        54.38303         0.23745
H         60.87440        56.53477         0.77306
H         59.87675        62.30472         1.77712
H         62.05557        58.59120         1.38956
H         61.98054        60.99378         1.98909
