         349
 CSIRO Nanostructure Databank - Neutral Graphene Oxide Data Set
C          1.72231         2.00693        -2.20389
C          1.40519         2.96529        -1.23538
C          3.05210         1.68095        -2.43471
C          2.44178         3.64149        -0.57445
C          1.21700         6.66236         0.54408
C          1.24818         7.99574         0.24570
C          2.36748         5.82455         0.35836
C          2.49095         8.61323        -0.13378
C          1.33126        10.62589        -0.99188
C          1.35253        11.95998        -1.19006
C          2.53636         9.88742        -0.64867
C          2.54825        12.80585        -0.83603
C          1.45885        14.96114        -1.81021
C          1.58369        16.26738        -2.17673
C          2.63733        14.10120        -1.63874
C          2.85487        16.94887        -2.18060
C          2.93609        18.35239        -2.43518
C          4.09555         2.32541        -1.72223
C          3.79610         3.40633        -0.83843
C          5.41982         1.79972        -1.81253
C          4.88996         4.10629        -0.08466
C          3.65230         6.33995         0.13497
C          3.73206         7.85959         0.29096
C          4.87638         5.59158         0.11084
C          5.01740         8.42383        -0.23185
C          3.80643        10.54203        -1.14287
C          3.85928        12.03320        -0.84871
C          5.08891         9.79871        -0.76722
C          5.05057        12.71388        -0.71717
C          3.98676        14.80767        -1.59562
C          4.01275        16.26398        -1.75965
C          5.10188        14.16275        -0.87870
C          5.20824        16.96516        -1.46829
C          4.11371        19.03482        -2.25114
C          5.27713        18.37071        -1.74258
C          6.44979         2.26229        -0.99595
C          6.23579         3.43842        -0.11774
C          7.72617         1.68383        -1.02560
C          7.46148         4.19116         0.23799
C          6.11941         6.27993         0.25178
C          6.16251         7.72282         0.07919
C          7.38376         5.59830         0.41072
C          7.37239         8.48488         0.56863
C          6.36345        10.57450        -0.52093
C          6.32067        12.04211        -0.46320
C          7.49524         9.90052         0.11079
C          7.43308        12.74135        -0.02942
C          6.22226        14.88387        -0.54459
C          6.33170        16.28437        -0.89206
C          7.30598        14.22486         0.27356
C          7.53262        16.97882        -0.66873
C          6.47954        19.05332        -1.51022
C          7.61725        18.37709        -1.00274
C          8.79953         2.14605        -0.21596
C          8.66119         3.47101         0.39645
C          9.99891         1.41052        -0.28903
C          9.79484         4.17975         0.96263
C          8.62193         6.33187         0.61247
C          8.67079         7.74543         0.57082
C          9.82340         5.62831         0.92532
C          9.87895         8.45755         0.73789
C          8.66647        10.61446         0.36772
C          8.66334        12.05612         0.29474
C          9.88329         9.91152         0.69165
C          9.83487        12.75413         0.66672
C          8.62981        14.94071         0.21634
C          8.69995        16.28721        -0.13851
C          9.78444        14.25183         0.89704
C          9.92955        17.01446         0.00142
C          8.82840        19.07150        -0.81862
C          9.99108        18.42217        -0.31816
C         11.08241         1.59383         0.61851
C         10.83715         3.50533         1.57488
C         12.42698         1.47018         0.42412
C         12.11664         4.12835         1.96061
C         11.00874         6.33982         1.24146
C         11.07630         7.74353         1.06741
C         12.18588         5.63530         1.81200
C         12.31523         8.44463         1.32156
C         11.06349        10.63943         0.90629
C         11.03225        12.05961         0.93899
C         12.38595         9.90839         0.91760
C         12.21303        12.83854         1.49398
C         11.11015        14.93485         0.67530
C         11.12529        16.32962         0.38621
C         12.29667        14.25328         0.96312
C         12.35723        17.03231         0.48074
C         11.16400        19.14987        -0.11907
C         12.38775        18.54425         0.47508
C         13.43213         1.76136         1.52071
C         13.38737         3.28826         2.05663
C         14.77189         1.34766         0.93658
C         14.67711         4.12796         2.21617
C         13.50158         6.31932         1.81455
C         13.47453         7.75702         1.66455
C         14.68420         5.60505         2.01800
C         14.69151         8.49970         2.09180
C         13.52429        10.71521         1.49858
C         13.52731        12.08525         1.45776
C         14.73315         9.99971         1.96590
C         14.77581        12.82681         1.52904
C         13.54086        14.93647         0.94271
C         13.54518        16.33598         0.70215
C         14.78451        14.22098         1.22931
C         14.82577        17.14019         0.79809
C         13.61921        19.06024        -0.20621
C         14.80756        18.38186        -0.08047
C         15.98565         1.48385         1.54142
C         15.98437         3.47542         2.26089
C         17.26129         1.13041         1.00998
C         17.23983         4.13717         2.04093
C         15.98740         6.27219         1.97964
C         15.98344         7.74392         2.22005
C         17.19699         5.61332         1.91061
C         17.27472         8.52087         2.18228
C         16.03889        10.69486         1.87789
C         16.02189        12.13784         1.66244
C         17.21825         9.98933         1.96558
C         17.23475        12.85967         1.59730
C         16.01273        14.89881         1.09049
C         16.01068        16.25635         0.50185
C         17.25222        14.24336         1.28980
C         17.28207        16.86983         0.03848
C         16.03932        18.94924        -0.51169
C         17.27916        18.32484        -0.27480
C         18.42697         1.90873         1.05924
C         18.54130         3.30857         1.58070
C         19.57933         1.34736         0.47023
C         19.63068         4.15215         1.00772
C         18.57116         6.28183         1.95694
C         18.55647         7.81467         1.90459
C         19.53267         5.55889         0.98336
C         19.72687         8.53424         1.96317
C         18.49992        10.67227         1.72310
C         18.52914        12.16279         1.55521
C         19.77569         9.99382         1.99070
C         19.78298        12.91212         1.80237
C         18.51366        14.92432         1.13997
C         18.60914        16.13892         0.23226
C         19.70948        14.31695         1.57946
C         19.72960        17.08039         0.57484
C         18.49644        18.98531        -0.40882
C         19.71351        18.39062         0.06592
C         20.75653         2.08476         0.21762
C         20.74920         3.51037         0.40904
C         21.89566         1.46726        -0.32148
C         21.92003         4.25441         0.07142
C         20.51702         6.23668         0.19986
C         21.06060         7.85642         1.89342
C         21.82288         5.67843         0.01664
C         21.98893         8.49478         0.90263
C         20.97092        10.71432         1.93631
C         21.02199        12.19748         1.95886
C         22.10119         9.96027         1.30024
C         22.24275        12.94844         1.96988
C         20.91284        15.16278         1.79488
C         20.82472        16.68053         1.52278
C         22.22823        14.43686         1.96352
C         22.18041        17.33813         1.16247
C         20.91909        19.14772        -0.00339
C         22.15473        18.58520         0.34965
C         23.11752         2.15476        -0.51495
C         23.14680         3.58118        -0.25682
C         24.18007         1.39577        -1.11946
C         24.29704         4.40538        -0.52517
C         23.02772         6.48804        -0.18710
C         23.13618         7.81538         0.26287
C         24.21591         5.81035        -0.63314
C         24.28732         8.68378        -0.12045
C         23.49307        10.33574         1.46991
C         23.56151        12.37517         2.04548
C         24.52667         9.90289         0.69578
C         24.72215        12.89012         1.47918
C         23.53861        15.16131         1.70751
C         23.50343        16.60469         1.26443
C         24.77821        14.36802         1.37516
C         24.66959        17.15789         0.54466
C         23.35787        19.18979        -0.02327
C         24.62208        18.52545         0.07185
C         25.52898         1.74161        -0.96945
C         25.60551         3.81302        -0.56035
C         26.67865         1.42403        -1.71488
C         26.74824         4.37933        -1.10458
C         25.42723         6.57172        -1.03520
C         25.49642         8.04072        -0.72702
C         26.70655         5.84321        -1.32795
C         26.81625         8.71408        -0.58865
C         25.84913        10.56829         0.76779
C         25.92506        12.05460         1.19869
C         26.95131         9.96412        -0.04181
C         27.21451        12.82403         0.90633
C         25.85983        15.01042         0.61880
C         25.80266        16.34818         0.25549
C         27.03955        14.18050         0.19632
C         26.90328        16.95065        -0.61223
C         25.78028        19.14963        -0.39288
C         27.08701        18.44195        -0.23603
C         27.86267         2.22137        -1.73363
C         27.92441         3.63386        -1.44804
C         29.03567         1.59085        -2.27658
C         29.12586         4.37940        -1.77362
C         28.02384         6.52880        -1.01570
C         27.96760         8.02594        -1.24846
C         29.20475         5.80296        -1.61968
C         29.25431         8.75446        -1.44068
C         28.18305        10.73479        -0.23544
C         28.25931        12.05259         0.12627
C         29.37380        10.09664        -0.82112
C         29.48014        12.81498        -0.34393
C         28.33301        15.01888         0.40046
C         28.25762        16.23161        -0.51785
C         29.57105        14.23144         0.12516
C         29.53259        16.96275        -0.75513
C         28.27338        19.08538        -0.92342
C         29.45915        18.42309        -1.03575
C         30.19564         2.27671        -2.50122
C         30.26640         3.68841        -2.27304
C         31.44817         4.40529        -2.57717
C         30.38608         6.49244        -1.91254
C         30.52592         8.01470        -1.87245
C         31.50259         5.77476        -2.40757
C         31.73570         8.48999        -1.10507
C         30.62453        10.61485        -0.56713
C         30.77254        12.03680        -0.05743
C         31.79375         9.75626        -0.63772
C         31.90587        12.79902        -0.71597
C         30.90655        14.92821         0.14016
C         30.82959        16.38187        -0.32478
C         31.93923        14.13649        -0.64898
C         31.94744        17.14649        -0.44928
C         30.71821        19.09173        -1.31180
C         31.89477        18.48574        -0.99665
O         21.49188        14.95476         3.12856
O         18.57801        11.27523         0.36192
O         16.39313        16.17174        -0.92192
O         25.89888         6.30602        -2.43413
O         21.48535         7.05212         2.70569
O         28.26980         8.60199        -2.54560
O         25.76253         2.60730         0.12677
O         24.54820        14.96241         2.73457
O         16.01816         2.22189         2.79321
O         21.57818         9.56567        -0.01939
O          5.34421         3.28307         1.05200
O          6.06514         9.93723        -1.86376
O         14.44682         9.34254         3.26511
O         16.69726         8.06239         3.46572
O         13.92452         3.50953         3.36624
O         10.69793         2.16146         1.87003
O          2.04120         4.49125         0.46180
O         24.54745         8.81159        -1.56200
O         18.26327         3.56375         2.95194
O         11.90996         5.00332         3.11845
O          3.52659        14.05379        -2.78070
O         28.88707        16.09322        -1.81634
O         23.01676        17.49329         2.34533
O         23.68362        11.10024         2.61891
O         26.24338        10.96683         2.12993
O          7.01376         8.59483         2.03549
H          7.42825         7.83382         2.49846
O         31.35625        14.92801         1.53349
H         31.29783        13.99002         1.83854
O         26.89392        13.90089        -1.22638
H         26.63786        14.74115        -1.67955
O          2.32242        13.25262         0.53999
H          2.27643        12.45979         1.11494
O         27.42304        18.41294         1.18617
H         27.31082        19.31592         1.54848
O         26.44968        16.80483        -1.97218
H         27.25674        16.83248        -2.54148
O          3.68282        10.47599        -2.59689
H          4.60109        10.54088        -2.95261
O         27.79565        13.08577         2.21386
H         27.63444        12.27775         2.75476
O         14.96001        17.59198         2.16955
H         14.17566        18.16869         2.35475
O         13.12903         0.97086         2.67697
H         13.68475         1.29915         3.41698
O         30.78333         8.41972        -3.24830
H         29.90515         8.46619        -3.69156
O          3.79894         8.11041         1.74898
H          4.73571         8.00003         2.03174
O         11.93315        12.98221         2.92636
H         11.05622        13.43538         3.00174
O         18.96756        15.57236        -1.07662
H         18.11444        15.36647        -1.52748
O         28.17384         6.42812         0.43934
H         28.30814         5.48251         0.66524
O         12.76101         9.80821        -0.51906
H         12.62552        10.69177        -0.92482
O         30.98545        12.03560         1.38121
H         31.72249        11.42056         1.57951
O         20.43303        17.28398         2.78352
H         21.16040        17.08097         3.41755
O         20.12619         7.36494        -0.44317
H         20.84732         7.73762        -0.99281
O         29.39701        12.91455        -1.80173
H         28.51484        13.31720        -2.00241
O         28.39136        15.58727         1.72115
H         28.33446        14.84490         2.36825
O          9.52970        14.37745         2.37628
H          9.54969        15.33726         2.58501
O         19.09537         5.98293         3.27534
H         18.50888         6.41188         3.93531
O          6.85469        14.29832         1.67333
H          7.63454        14.06554         2.23405
O         12.48347        18.96138         1.91313
H         11.64356        18.69945         2.34770
H          0.92108         1.48388        -2.74321
H          0.36228         3.18366        -0.97363
H          3.31025         0.87520        -3.13584
H          0.27265         6.17220         0.81609
H          0.31797         8.57952         0.26148
H          0.38868        10.07629        -1.13302
H          0.42278        12.47791        -1.46831
H          0.45913        14.53982        -1.62918
H          0.68013        16.87054        -2.35226
H          2.03762        18.88204        -2.78392
H          5.60428         0.94569        -2.48074
H          4.17138        20.11178        -2.46551
H          7.89134         0.80099        -1.66125
H          6.54961        20.12864        -1.73139
H         10.07158         0.61568        -1.04574
H          8.88099        20.14123        -1.06964
H         12.79401         1.06895        -0.52990
H         11.17136        20.22747        -0.34114
H         14.75156         0.78031        -0.00417
H         13.56607        19.99779        -0.78006
H         17.31266         0.20362         0.41964
H         16.02942        19.96818        -0.92902
H         19.55563         0.28167         0.19975
H         18.51493        20.04037        -0.71872
H         21.85831         0.38896        -0.53670
H         20.89974        20.12591        -0.50625
H         23.90356         0.51092        -1.71247
H         23.32286        20.16858        -0.52516
H         26.66304         0.53085        -2.35831
H         25.73356        20.16647        -0.80974
H         28.98686         0.51413        -2.49560
H         28.24281        20.17107        -1.11215
H         31.08255         1.75882        -2.89371
H         32.31859         3.86003        -2.96963
H         32.41364         6.32565        -2.67868
H         32.62967         7.84990        -1.07894
H         32.72912        10.13531        -0.19535
H         32.68288        12.24634        -1.26649
H         32.76303        14.69225        -1.12324
H         32.92762        16.74645        -0.15286
H         30.69908        20.12555        -1.68620
H         32.84377        19.02075        -1.14287
