         627
 CSIRO Nanostructure Databank - Neutral Graphene Oxide Data Set
C         23.08824        27.62271         1.00064
C         23.09813        28.97596         1.29063
C         23.22450        31.70123         2.37867
C         23.33279        32.96599         2.94348
C         23.34981        36.67378         2.66400
C         23.24984        37.82838         1.89471
C         23.11483        40.25995         0.30415
C         23.08519        41.57310        -0.15305
C         23.02894        44.42313        -1.11291
C         23.06675        45.72406        -1.50445
C         25.48459        24.79664         0.52191
C         24.30757        25.49052         0.62139
C         25.53648        27.58990         0.97161
C         24.29873        26.90105         0.86307
C         25.53671        28.99914         1.19785
C         24.31604        29.69022         1.41091
C         25.58249        31.82103         1.72207
C         24.35815        31.08811         1.81009
C         25.64378        33.20346         2.09402
C         24.53051        33.67814         2.81750
C         25.65924        36.29435         1.85749
C         24.53827        35.94193         2.64652
C         25.61011        37.59655         1.26778
C         24.38331        38.32279         1.22433
C         25.55746        40.29113         0.26024
C         24.33684        39.62052         0.57364
C         25.52400        41.67426        -0.10871
C         24.27048        42.31187        -0.29527
C         25.52824        44.53236        -0.62219
C         24.20335        43.77852        -0.50935
C         25.51822        45.86571        -1.23900
C         24.29398        46.48623        -1.53620
C         25.47837        48.53121        -2.12144
C         24.30069        47.83498        -1.99940
C         28.00957        23.29449         0.40561
C         27.98520        24.73055         0.58464
C         26.75689        25.44657         0.65594
C         27.99892        27.55368         1.02930
C         26.77141        26.86471         0.87633
C         27.99875        28.98415         1.19391
C         26.77973        29.71095         1.24206
C         28.02138        31.84527         1.35464
C         26.79530        31.12838         1.39977
C         28.02455        33.29299         1.46830
C         26.83416        34.00922         1.80585
C         28.02271        36.11633         1.23852
C         26.83720        35.45039         1.69720
C         28.01428        37.47972         0.82064
C         26.81128        38.20757         0.76863
C         28.02661        40.27361         0.08968
C         26.79447        39.58569         0.35024
C         28.00574        41.67822        -0.19946
C         26.77103        42.38494        -0.29521
C         27.99531        44.44967        -0.88325
C         26.78441        43.76709        -0.60823
C         27.98747        45.84576        -1.25583
C         26.75537        46.53501        -1.46035
C         27.96936        48.62221        -1.96489
C         26.74137        47.91310        -1.85813
C         27.99401        50.05707        -2.16774
C         30.46874        23.25737         0.45610
C         29.16517        22.59029         0.34265
C         30.47306        24.71653         0.71722
C         29.22778        25.42531         0.71306
C         30.47551        27.51440         1.08081
C         29.23776        26.83601         0.94558
C         30.48108        28.93658         1.57721
C         29.21949        29.69606         1.26997
C         30.51242        31.77846         1.03077
C         29.22588        31.09160         1.24031
C         30.50763        33.26620         1.04050
C         29.24817        34.00654         1.28825
C         30.51380        36.13060         0.98316
C         29.26631        35.40041         1.18102
C         30.53396        37.44865         0.58977
C         29.23724        38.07305         0.15111
C         30.49050        40.26963         0.02108
C         29.25933        39.57982         0.15201
C         30.47446        41.67033        -0.26349
C         29.23706        42.36655        -0.41201
C         30.46840        44.43719        -0.98733
C         29.23085        43.75198        -0.75752
C         30.45288        45.84192        -1.33174
C         29.21867        46.53256        -1.46204
C         30.43734        48.64285        -1.90825
C         29.20949        47.93691        -1.79613
C         30.47370        50.06344        -2.43294
C         29.14376        50.75126        -2.30844
C         32.89931        20.31817         0.99809
C         31.71236        20.99989         0.96498
C         32.91975        23.17313         1.32972
C         31.71609        22.46196         0.78501
C         32.93455        24.69962         1.41233
C         31.68094        25.39070         0.90377
C         32.96092        27.52057         1.08347
C         31.69219        26.81421         1.01581
C         32.97574        28.89695         1.21724
C         31.76163        29.67088         1.28149
C         33.03737        31.79098         1.06992
C         31.79107        31.04767         1.18780
C         33.05123        33.21677         1.07301
C         31.79896        33.94604         1.32963
C         33.06199        36.11839         0.94130
C         31.79225        35.45293         1.26579
C         33.02258        37.52343         0.63533
C         31.78018        38.18288         0.46527
C         32.97418        40.32069         0.07743
C         31.75165        39.58149         0.15759
C         32.93656        41.71810        -0.14334
C         31.70397        42.38367        -0.41531
C         32.98190        44.38376        -1.24606
C         31.68176        43.74921        -0.82190
C         32.92119        45.88928        -1.34346
C         31.68159        46.56018        -1.45437
C         32.88789        48.72460        -1.61624
C         31.65812        47.98190        -1.67841
C         32.85992        50.16859        -1.62542
C         31.65473        50.85621        -1.90364
C         32.78324        52.97285        -1.47179
C         31.63944        52.25310        -1.82011
C         35.41897        18.85948         0.67692
C         35.39241        20.27596         0.72827
C         34.16456        20.97490         0.91282
C         35.47207        23.15547         0.96033
C         34.21922        22.41592         1.19363
C         35.43232        24.60436         0.87912
C         34.23280        25.30812         0.93786
C         35.51796        27.44499         0.95961
C         34.20851        26.78048         0.62896
C         35.53836        28.88702         1.23666
C         34.24664        29.64535         1.33505
C         35.50253        31.78730         0.95117
C         34.26463        31.09941         1.09664
C         35.49945        33.21430         0.80620
C         34.25719        33.93992         0.96044
C         35.57309        36.09742         0.91189
C         34.24369        35.38103         0.91304
C         35.50109        37.54734         0.48925
C         34.26346        38.23176         0.43764
C         35.48522        40.31660         0.07807
C         34.24509        39.63276         0.18721
C         35.49683        41.79717         0.04805
C         34.17558        42.51080        -0.00860
C         35.43216        44.52078        -0.93203
C         34.14164        43.99551        -0.32231
C         35.38985        45.92134        -1.25163
C         34.13321        46.60816        -1.34402
C         35.32077        48.78076        -1.24971
C         34.10422        48.04465        -1.42322
C         35.28600        50.20169        -1.15266
C         34.04718        50.90157        -1.32400
C         35.23336        53.06482        -0.95322
C         34.01120        52.32625        -1.23848
C         35.25522        54.47481        -0.83059
C         37.82506        18.86999         0.38461
C         36.61531        18.17648         0.55648
C         37.82660        20.28348         0.36332
C         36.62510        20.99921         0.59582
C         37.88868        23.15567         0.45166
C         36.64035        22.44766         0.66534
C         37.89756        24.59486         0.54184
C         36.69530        25.30628         0.70079
C         37.97924        27.46345         0.83993
C         36.71004        26.75022         0.82340
C         37.95717        28.89851         0.86519
C         36.77031        29.63483         0.95116
C         37.94845        31.78112         0.58461
C         36.74190        31.06423         0.86769
C         37.91736        33.20014         0.36914
C         36.70173        33.89699         0.49080
C         37.95139        36.07871         0.13950
C         36.62390        35.35497         0.09289
C         37.97741        37.48193         0.20449
C         36.71752        38.22897         0.29188
C         37.96163        40.47929         0.41414
C         36.71285        39.63912         0.15065
C         37.92095        41.77447        -0.39427
C         36.72171        42.46784        -0.46908
C         37.79081        44.44992        -1.73429
C         36.61519        43.80604        -1.00809
C         37.85069        45.97218        -1.45450
C         36.60910        46.65061        -1.29570
C         37.75245        48.81600        -0.96354
C         36.55918        48.08492        -1.17751
C         37.71727        50.22921        -0.80657
C         36.48731        50.93038        -0.91755
C         37.68247        53.07867        -0.61289
C         36.46221        52.36333        -0.81712
C         37.68142        54.50160        -0.52272
C         36.43563        55.16880        -0.61676
C         40.15408        15.96503        -0.28624
C         39.06931        16.66203         0.06928
C         40.06796        18.85674        -0.72650
C         39.15689        18.15595         0.30939
C         40.18130        20.32898        -0.37438
C         39.06810        21.00532         0.06833
C         40.31459        23.16996        -0.01476
C         39.07364        22.45765         0.16542
C         40.34318        24.58013         0.23488
C         39.16327        25.29417         0.48930
C         40.44117        27.41922         0.54166
C         39.18695        26.73691         0.67538
C         40.49625        28.88629         0.70156
C         39.21125        29.66336         0.86807
C         40.36574        31.74818         0.08833
C         39.18502        31.09198         0.50957
C         40.34325        33.18227        -0.14675
C         39.14253        33.89947         0.05701
C         40.38056        36.03244        -0.19020
C         39.14870        35.33665        -0.01737
C         40.39573        37.45160        -0.12187
C         39.21551        38.17723         0.08863
C         40.43493        40.30375        -0.46421
C         39.33476        39.67329         0.39340
C         40.37925        41.71251        -0.83584
C         39.13268        42.40949        -0.85740
C         40.28313        44.20768        -1.96450
C         39.08151        43.68403        -1.46918
C         40.29752        46.32604        -1.92233
C         39.02293        46.76745        -1.44567
C         40.22335        48.80221        -0.76137
C         39.00488        48.13218        -1.01034
C         40.17442        50.21813        -0.50193
C         38.94212        50.93537        -0.60569
C         40.14572        53.06082        -0.43390
C         38.91869        52.35498        -0.52366
C         40.15755        54.49290        -0.38476
C         38.93477        55.21939        -0.37161
C         40.21718        57.27924        -0.03138
C         39.00984        56.63162        -0.22724
C         42.68759        16.04623        -0.09027
C         41.43842        16.65266        -0.57333
C         42.67925        18.89418        -0.66838
C         41.41830        18.13935        -0.80618
C         42.68197        20.30579        -0.77111
C         41.37633        21.06739        -0.91425
C         42.73724        23.16229        -0.58756
C         41.48970        22.48752        -0.41461
C         42.81643        24.56504        -0.39723
C         41.69529        25.23914         0.37684
C         42.83734        27.45500         0.02784
C         41.62550        26.73780         0.24786
C         42.83322        28.86969        -0.04110
C         41.65066        29.62000         0.16638
C         42.67434        31.64077        -0.86682
C         41.56482        31.00095        -0.11595
C         42.63827        33.11716        -1.22643
C         41.52985        33.88635        -0.53428
C         42.77729        36.01257        -0.88920
C         41.57106        35.28583        -0.50964
C         42.84928        37.39027        -0.77957
C         41.72652        38.17394        -0.11603
C         42.78777        40.20121        -1.23717
C         41.58108        39.58035        -0.66475
C         42.81796        41.68846        -1.42525
C         41.56709        42.40788        -1.16476
C         42.80783        44.55258        -1.75684
C         41.55231        43.75288        -1.58627
C         42.80487        46.09104        -1.73081
C         41.52202        46.83397        -1.50924
C         42.70641        48.78238        -0.55884
C         41.49415        48.12662        -0.88608
C         42.63115        50.16140         0.06503
C         41.37564        50.91897        -0.29295
C         42.60472        53.03233        -0.49298
C         41.36452        52.32628        -0.34868
C         42.58489        54.42296        -0.58884
C         41.41164        55.18397        -0.34601
C         42.62204        57.24588         0.46966
C         41.46147        56.58579        -0.04793
C         43.83186        16.76662        -0.05855
C         45.12638        18.83471        -0.55611
C         43.88996        18.16504        -0.44497
C         45.12238        20.19253        -1.20508
C         43.89217        21.00607        -0.91372
C         45.15413        23.14047        -1.18628
C         43.93660        22.43394        -0.94479
C         45.18078        24.55347        -1.17343
C         43.97954        25.27433        -0.75651
C         44.95377        27.51524        -1.05928
C         43.97211        26.71062        -0.52264
C         45.29663        28.84047        -0.54129
C         44.10741        29.68097        -0.07727
C         45.23887        31.69400        -1.15581
C         43.98936        30.94281        -0.90701
C         45.23338        33.10217        -1.26504
C         44.00049        33.79638        -1.15706
C         45.30485        35.97430        -1.45111
C         43.94778        35.23900        -1.36596
C         45.31171        37.40859        -1.19377
C         44.08254        38.10221        -1.05333
C         45.26711        40.26399        -1.29534
C         44.08580        39.52153        -1.11768
C         45.30079        41.69714        -1.31690
C         44.08855        42.44055        -1.38507
C         45.28319        44.56636        -1.13032
C         44.07951        43.84298        -1.41776
C         45.27282        45.99126        -0.93138
C         44.12655        46.85522        -1.46264
C         45.14503        48.81951        -0.23952
C         43.96739        48.16066        -0.68657
C         45.14158        50.24714         0.03009
C         43.89301        50.93812        -0.22109
C         45.56564        53.30212         0.28881
C         43.81805        52.26731        -0.55632
C         45.37057        54.62571         0.78656
C         44.36516        55.48825         0.24501
C         43.86341        56.68857         0.78915
C         47.56696        18.86612        -0.54532
C         46.37681        18.21355        -0.30753
C         47.59633        20.23957        -0.96540
C         46.41946        20.94020        -1.09065
C         47.71276        23.06539        -1.24008
C         46.41304        22.36642        -1.59251
C         47.72188        24.49025        -1.20923
C         46.48742        25.20273        -1.37243
C         47.82029        27.33013        -1.50996
C         46.64155        26.55449        -1.70738
C         47.80737        28.76812        -1.40758
C         46.56337        29.48752        -0.96751
C         47.79554        31.67700        -1.32130
C         46.48851        30.94526        -1.28257
C         47.76397        33.13685        -1.19776
C         46.52595        33.81919        -1.29836
C         47.77958        35.94824        -1.16747
C         46.55650        35.23185        -1.29278
C         47.78237        37.38505        -1.22350
C         46.54836        38.08323        -1.26222
C         47.84634        40.29683        -1.37913
C         46.51928        39.52971        -1.47754
C         47.77485        41.72432        -1.05848
C         46.53780        42.41096        -1.15410
C         47.68786        44.50438        -0.53745
C         46.49572        43.83102        -0.94539
C         47.61734        45.88313        -0.17395
C         46.39942        46.62606        -0.39739
C         47.43092        48.63984         0.60435
C         46.36506        48.05515        -0.05182
C         47.30919        50.01428         1.14407
C         46.24686        50.90015         0.62631
C         47.29962        52.82908         1.89922
C         46.33821        52.31447         0.94626
C         47.14046        54.16360         2.38732
C         46.16000        55.00393         1.91867
C         50.15128        20.18327        -1.05679
C         48.88511        20.87965        -1.46683
C         50.16078        23.03503        -0.99526
C         48.90478        22.35828        -1.17010
C         50.18332        24.45998        -1.01253
C         48.96444        25.18765        -1.17145
C         50.24501        27.33151        -1.13276
C         49.01607        26.61713        -1.26970
C         50.25143        28.76196        -1.11528
C         48.99995        29.45968        -1.19739
C         50.26575        31.66142        -0.95445
C         48.97189        30.91253        -0.76160
C         50.24973        33.07985        -0.96750
C         49.00091        33.81818        -1.05130
C         50.25574        35.95269        -0.95012
C         49.01321        35.23799        -1.04816
C         50.25072        37.38176        -0.92873
C         49.02611        38.10521        -1.09729
C         50.24225        40.23413        -0.76757
C         49.04669        39.52176        -1.04872
C         50.20207        41.67477        -0.59498
C         48.97295        42.38859        -0.68125
C         50.09179        44.46885         0.04673
C         48.91941        43.79507        -0.39187
C         50.00141        45.83400         0.46518
C         48.76188        46.49881         0.39099
C         49.87369        48.58307         1.23468
C         48.57652        47.79952         1.12383
C         49.80037        49.98576         1.74182
C         48.45797        50.62749         1.88950
C         49.58992        52.58474         2.86669
C         48.45186        52.06562         2.22762
C         51.29568        20.85119        -0.80915
C         52.61633        22.99073        -0.78761
C         51.37512        22.30127        -0.85399
C         52.62195        24.40655        -0.84352
C         51.42712        25.15243        -0.92563
C         52.64890        27.32394        -0.76658
C         51.45297        26.60453        -0.95891
C         52.67209        28.74070        -0.72853
C         51.46756        29.47651        -0.89404
C         52.68870        31.66051        -0.73461
C         51.47285        30.93983        -0.87308
C         52.71004        33.07338        -0.77166
C         51.48237        33.79931        -0.89193
C         52.71863        35.95715        -0.74164
C         51.48204        35.23500        -0.87229
C         52.71793        37.37533        -0.67856
C         51.47678        38.10212        -0.77196
C         52.74559        40.29228        -0.73096
C         51.45873        39.51492        -0.67800
C         52.63044        41.67499        -0.12779
C         51.39576        42.37654        -0.22189
C         52.53136        44.44917         0.50920
C         51.33811        43.76258         0.12657
C         52.45463        45.83309         0.94397
C         51.19211        46.49630         0.97957
C         52.26130        48.49734         1.97224
C         51.13078        47.83164         1.43370
C         52.17160        49.83736         2.50646
C         50.94529        50.56928         2.46696
C         50.76789        51.84344         3.03146
C         55.08995        22.93870        -0.58122
C         53.88916        22.30698        -0.60819
C         55.21612        24.38837        -0.82691
C         53.90889        25.13046        -0.90799
C         55.18394        27.29045        -0.35108
C         53.88161        26.56409        -0.50040
C         55.14487        28.75324        -0.50357
C         53.94599        29.42647        -0.60013
C         55.22028        31.66438        -0.50216
C         53.92822        30.90602        -0.47527
C         55.19575        33.12970        -0.64758
C         53.96447        33.80673        -0.68637
C         55.17819        35.94195        -0.43769
C         53.95296        35.23735        -0.64635
C         55.16774        37.36355        -0.29372
C         53.94882        38.08473        -0.44777
C         55.12747        40.16773         0.07784
C         53.95543        39.49865        -0.30620
C         55.02409        41.57404         0.53692
C         53.77943        42.34201         0.30629
C         55.02338        44.47358         0.73680
C         53.75386        43.73849         0.55777
C         54.93943        45.95332         1.17883
C         53.60484        46.52265         1.40023
C         54.69062        48.44830         2.52681
C         53.51887        47.81310         1.98710
C         54.55164        49.74945         3.06907
C         53.34215        50.41453         3.06191
C         57.71833        24.46884        -0.44661
C         56.47680        25.14882        -0.53700
C         57.68586        27.29113        -0.40017
C         56.46465        26.55139        -0.49215
C         57.70138        28.71722        -0.45218
C         56.43945        29.44148        -0.72489
C         57.80162        31.68626        -0.83198
C         56.47102        30.92763        -0.86273
C         57.66165        33.10706        -0.32837
C         56.43653        33.81495        -0.46688
C         57.61749        35.93341        -0.00637
C         56.40679        35.23406        -0.30575
C         57.61112        37.35039         0.06578
C         56.39344        38.06264        -0.03958
C         57.60200        40.17499         0.46460
C         56.36384        39.47872         0.18806
C         57.57619        41.64748         0.57407
C         56.28251        42.30837         0.88881
C         57.44227        44.46462         1.37935
C         56.28000        43.77823         0.97783
C         57.33613        45.82345         1.87320
C         56.10251        46.51765         1.87406
C         57.12410        48.35503         3.12502
C         55.96445        47.77397         2.52530
C         58.90212        25.16307        -0.27294
C         60.11892        27.32046        -0.06595
C         58.91448        26.57940        -0.24826
C         60.10433        28.69240        -0.02080
C         58.89781        29.44033        -0.22558
C         59.99862        31.61006         0.33263
C         58.90832        30.88636        -0.16965
C         59.99218        33.00030         0.42063
C         58.82672        33.77775         0.12787
C         59.90530        35.92011         0.89881
C         58.80097        35.19594         0.31085
C         59.95490        37.27252         0.88981
C         58.93940        38.06828         0.11386
C         60.02516        40.25633         0.82970
C         58.82919        39.52576         0.50538
C         60.04169        41.59265         1.10476
C         58.84900        42.41974         0.89686
C         59.80336        44.43131         2.05169
C         58.70780        43.78371         1.47416
C         59.69579        45.72627         2.56261
C         58.47458        46.42528         2.49837
C         58.33772        47.71576         3.09340
O         54.62410        31.28431         0.78912
O         45.53646        27.19141        -2.29140
O         40.06580        29.34902         2.03069
O         50.05196        49.69848         0.30363
O         46.38106        29.00667         0.44455
O         44.52333        35.64628        -2.64999
O         47.41705        49.92828         2.67515
O         39.87041        39.68054         1.71660
O         24.62712        34.87281         3.54300
O         30.51446        32.56143        -0.24504
O         54.66022        24.83323        -2.13120
O         47.26492        39.94450        -2.67417
O         54.42939        26.80913         0.84087
O         56.37372        30.12074        -2.07912
O         34.96913        29.25101         2.56809
O         43.07634        30.82103        -2.05088
O         47.22358        31.18127        -2.55879
O         43.76427        55.09118        -0.96487
O         44.99529        52.94303        -0.94115
O         40.22949        45.28762        -2.85577
O         31.79796        34.73041         2.55941
O         34.88000        42.32955         1.27710
O         58.31203        42.33202        -0.47962
O         33.50790        22.62248         2.53420
O         31.43279        22.87424        -0.60721
O         55.17623        45.58695        -0.21486
O         41.48412        17.19699        -1.94982
O         24.76887        44.49762         0.63971
O         42.64059        40.79037        -2.58527
O         42.88665        45.35251        -2.98883
O         45.02945        19.90677        -2.68506
H         45.70585        19.22129        -2.88063
O         39.82710        18.34371         1.59016
H         39.22254        18.03978         2.29883
O         30.46020        28.80668         3.05257
H         31.24212        28.27145         3.31052
O         36.04658        36.07331         2.28816
H         35.41867        36.58472         2.83998
O         59.43366        38.08774        -1.28073
H         58.81434        38.64101        -1.80317
O         52.97999        40.54192        -2.17291
H         52.17508        40.97452        -2.53112
O         37.51659        44.32620        -3.16231
H         38.30632        44.67658        -3.63300
O         36.16890        35.38093        -1.29243
H         36.86471        34.97201        -1.84862
O         44.59293        47.29589        -2.77295
H         44.33497        46.59102        -3.41242
O         42.56179        49.96442         1.52283
H         43.39036        49.51569         1.79663
O         48.80174        20.75118        -2.92587
H         48.04257        21.32080        -3.21740
O         42.11941        38.32018         1.28069
H         41.35308        38.82358         1.70289
O         32.89798        25.04552         2.84075
H         33.37874        24.32011         3.30949
O         44.32489        30.12463         1.28144
H         45.23798        29.84784         1.54080
O         48.22316        47.39311         2.48698
H         47.83030        48.19162         2.92663
O         58.23633        31.84256        -2.22146
H         57.86294        31.07184        -2.71394
O         30.72724        49.94324        -3.88401
H         29.98163        49.43359        -4.26639
O         42.07694        24.99997         1.79136
H         41.42977        25.47882         2.35295
O         37.76975        40.93170         1.77530
H         38.55594        40.55511         2.27381
O         33.92235        44.69818         0.92008
H         34.41826        44.20106         1.61206
O         42.29024        33.20688        -2.64184
H         42.71269        32.43043        -3.08049
O         46.40089        22.26324        -3.06141
H         45.70418        21.59213        -3.28111
O         29.09984        37.70213        -1.27836
H         28.25300        38.08141        -1.59741
O         48.73758        30.90432         0.68631
H         49.47209        30.41096         1.10920
O         34.11697        26.87406        -0.85752
H         34.82402        26.30451        -1.23097
O         33.30547        43.84358        -2.56029
H         32.62398        44.14920        -3.19450
O         41.12184        21.17113        -2.36498
H         40.58325        20.38432        -2.62189
O         55.49765        41.66641         1.95318
O         39.46305        18.79780        -2.03888
H         39.88513        18.03125        -2.50114
H         22.13184        27.08966         0.89931
H         22.13960        29.49846         1.41289
H         22.27965        31.15070         2.47279
H         22.49938        33.40663         3.50527
H         22.51626        36.34002         3.29462
H         22.31023        38.39525         1.89752
H         22.16407        39.73727         0.47206
H         22.11336        42.05550        -0.32379
H         22.10794        43.83958        -1.25353
H         22.15941        46.19951        -1.90604
H         25.44120        23.71523         0.33715
H         23.34720        24.96410         0.52119
H         25.44296        49.57548        -2.45883
H         23.34428        48.32101        -2.24034
H         27.06089        22.75087         0.30453
H         27.04277        50.60737        -2.15876
H         29.14253        21.50696         0.16091
H         29.09253        51.83808        -2.46385
H         32.86319        19.22056         1.03300
H         30.76220        20.44871         0.95258
H         32.71449        54.06768        -1.41851
H         30.72065        52.81393        -2.03816
H         34.49067        18.28339         0.77573
H         34.32124        55.04723        -0.91220
H         36.58999        17.07955         0.57389
H         36.39393        56.26395        -0.54034
H         40.11497        14.87013        -0.39707
H         38.13361        16.12155         0.27023
H         40.22041        58.36219         0.16276
H         38.08725        57.22817        -0.21314
H         42.66633        15.00609         0.26607
H         42.43807        58.26194         0.85655
H         44.75265        16.27804         0.28767
H         44.48524        57.23353         1.51642
H         48.50832        18.32904        -0.37226
H         46.41256        17.18376         0.07325
H         47.80326        54.51731         3.18819
H         46.04245        56.00690         2.35172
H         50.17211        19.08426        -1.07158
H         49.58254        53.62200         3.22931
H         52.20551        20.27737        -0.58310
H         51.59550        52.32056         3.57351
H         55.99427        22.35531        -0.35490
H         53.87617        21.22152        -0.43660
H         55.42218        50.26381         3.49588
H         53.30210        51.42837         3.48135
H         57.74230        23.37171        -0.49695
H         57.05506        49.33031         3.62387
H         59.85045        24.61670        -0.16893
H         61.06676        26.77520         0.05020
H         61.05170        29.22727         0.12768
H         60.88891        31.07845         0.69826
H         60.89632        33.50101         0.79103
H         60.70356        35.35811         1.40453
H         60.79913        37.78685         1.36985
H         60.96628        39.69632         0.92098
H         60.96818        42.05404         1.47444
H         60.77328        43.91928         2.11273
H         60.56756        46.20427         3.03112
H         59.21807        48.17869         3.56218
