         630
 CSIRO Nanostructure Databank - Neutral Graphene Oxide Data Set
C         23.03379        27.23080        -0.67787
C         23.02010        28.62880        -0.80270
C         23.00711        31.56284        -0.64740
C         23.00515        32.96527        -0.57854
C         22.93603        35.89532        -0.60109
C         22.89186        37.28325        -0.55170
C         22.84712        40.25281        -0.78010
C         22.84536        41.62950        -0.69653
C         22.86237        44.57547        -0.34350
C         22.88472        45.95404        -0.25455
C         25.46962        24.46575        -0.26601
C         24.27347        25.11618        -0.42659
C         25.50915        27.22043        -1.03065
C         24.23008        26.52094        -0.65460
C         25.47192        28.70828        -0.80714
C         24.21340        29.38354        -0.81617
C         25.43067        31.54218        -0.96129
C         24.19777        30.83188        -0.82597
C         25.37390        33.00455        -1.34738
C         24.14263        33.71846        -0.83876
C         25.35516        35.86925        -0.98681
C         24.14178        35.16084        -0.81008
C         25.30337        37.34293        -1.01656
C         24.04785        38.06195        -0.72737
C         25.26790        40.22927        -0.50148
C         24.05151        39.49934        -0.68167
C         25.25563        41.61860        -0.36703
C         24.04189        42.36456        -0.46330
C         25.30959        44.49980        -0.20283
C         24.05383        43.80089        -0.32246
C         25.31429        45.93381        -0.19078
C         24.11832        46.66492        -0.18194
C         25.30606        48.79882         0.17621
C         24.14958        48.09760         0.03439
C         27.96389        23.11384         0.39390
C         27.94702        24.50986         0.13268
C         26.72633        25.18203        -0.22399
C         27.95819        27.30935        -0.39889
C         26.74849        26.55767        -0.49154
C         27.94128        28.73226        -0.60944
C         26.67598        29.42313        -0.76322
C         27.90240        31.58360        -0.91309
C         26.65314        30.85843        -0.87676
C         27.85983        33.01987        -1.06840
C         26.66709        33.74686        -1.10844
C         27.82717        35.93389        -0.90279
C         26.62515        35.19395        -1.05125
C         27.85088        37.35023        -0.69685
C         26.59286        38.10869        -0.85172
C         27.80268        40.26131        -0.57079
C         26.55252        39.47931        -0.21321
C         27.76568        41.62387        -0.47115
C         26.52948        42.30650         0.06575
C         27.78019        44.49495        -0.02574
C         26.53325        43.79591        -0.15109
C         27.80232        45.88602         0.13151
C         26.59648        46.65311        -0.18617
C         27.88380        48.83393         0.37667
C         26.61683        48.16797        -0.05050
C         28.02741        50.18730         0.34233
C         30.36759        23.16449         0.78915
C         29.13496        22.46087         0.69111
C         30.37616        24.56992         0.57060
C         29.17151        25.24115         0.21340
C         30.40136        27.39209        -0.03501
C         29.17534        26.65273        -0.06523
C         30.39124        28.78219        -0.33190
C         29.14799        29.46537        -0.57981
C         30.38876        31.61820        -0.76735
C         29.12776        30.89878        -0.76472
C         30.40860        33.01740        -0.91808
C         29.14429        33.71936        -1.19215
C         30.35311        35.89303        -0.61853
C         29.10749        35.23900        -1.08566
C         30.30789        37.37025        -0.38428
C         29.03162        38.08413        -0.56124
C         30.27279        40.22884        -0.64961
C         29.06210        39.53378        -0.65013
C         30.30604        41.66498        -0.87253
C         28.95810        42.42447        -0.74194
C         30.25773        44.46239        -0.22214
C         29.03294        43.80367        -0.25009
C         30.32357        45.79900         0.39399
C         29.01674        46.54225         0.61524
C         30.38334        48.67237         0.87933
C         29.00821        48.02244         0.99020
C         30.41987        50.12381         0.95775
C         29.25940        50.82942         0.70498
C         32.86533        20.37789         1.15650
C         31.65748        21.06388         1.01192
C         32.79773        23.22015         1.52627
C         31.58514        22.45575         1.06588
C         32.77903        24.67230         1.09473
C         31.62308        25.31288         0.69415
C         32.81558        27.47122         0.40448
C         31.62905        26.74007         0.35315
C         32.85937        28.82901        -0.05019
C         31.63008        29.50819        -0.38919
C         32.88422        31.61246        -0.89362
C         31.61906        30.89342        -0.66351
C         32.89012        33.09171        -0.83519
C         31.63943        33.76975        -0.87076
C         32.84491        35.91330        -0.78145
C         31.64030        35.19100        -0.83444
C         32.83898        37.39577        -0.85273
C         31.56198        38.13337        -0.65342
C         32.82948        40.30359        -0.64818
C         31.57028        39.57690        -0.21881
C         32.81908        41.71059        -0.73295
C         31.55354        42.42570        -0.67434
C         32.72779        44.64816        -0.74905
C         31.50140        43.79824        -0.51912
C         32.77375        45.94025         0.03764
C         31.59952        46.54892         0.43254
C         32.86040        48.56470         1.27482
C         31.55569        47.94156         0.83941
C         32.90459        50.07290         1.18582
C         31.70864        50.80547         1.13829
C         32.97647        52.86641         1.46150
C         31.77508        52.21848         1.25652
C         35.39537        18.91904         1.35080
C         35.34820        20.34429         1.23477
C         34.10489        21.05869         1.21948
C         35.31372        23.18746         1.16987
C         34.10792        22.49627         1.23575
C         35.32826        24.66964         1.31017
C         34.03220        25.42941         1.33195
C         35.33682        27.52406         0.70312
C         34.01439        26.94833         1.17384
C         35.32623        28.83560         0.24240
C         34.10614        29.49691        -0.10659
C         35.40801        31.65628        -0.36956
C         34.18433        30.86295        -0.64861
C         35.42825        33.12246        -0.75397
C         34.08599        33.81718        -0.71442
C         35.32130        36.00128        -0.55990
C         34.07673        35.23437        -0.69661
C         35.30450        37.46456        -0.60899
C         34.09933        38.15154        -0.68794
C         35.29017        40.31043        -0.77161
C         34.06052        39.58931        -0.69906
C         35.28547        41.73763        -0.87048
C         34.03430        42.44611        -0.84169
C         35.21586        44.58931        -0.74387
C         34.02526        43.87825        -0.73295
C         35.28054        45.95988        -0.30691
C         34.05485        46.62489         0.15815
C         35.35874        48.55719         0.99494
C         34.08177        47.89626         0.69470
C         35.39621        50.00909         1.23532
C         34.15775        50.73971         1.31306
C         35.46574        52.81001         1.73719
C         34.19841        52.15155         1.49539
C         35.53223        54.19314         2.04440
C         37.84662        18.89983         1.37679
C         36.57952        18.23397         1.43762
C         37.82622        20.34789         1.19411
C         36.57849        21.06021         1.16732
C         37.79661        23.21830         1.03433
C         36.56632        22.48894         1.09919
C         37.80343        24.66155         0.99451
C         36.59381        25.39653         1.03983
C         37.83328        27.49651         0.72083
C         36.57781        26.79516         0.83178
C         37.84835        28.89674         0.43777
C         36.61318        29.51262        -0.16087
C         37.78237        31.76693         0.44781
C         36.55095        31.01967        -0.02839
C         37.81043        33.21045         0.01665
C         36.46564        33.89344         0.06701
C         37.78057        36.06976        -0.01562
C         36.49283        35.35068        -0.30257
C         37.77943        37.52064        -0.41846
C         36.54439        38.19391        -0.56367
C         37.76607        40.32626        -0.80583
C         36.53515        39.61419        -0.72493
C         37.75171        41.75436        -0.98699
C         36.50552        42.44021        -1.00284
C         37.73221        44.62894        -1.12953
C         36.42799        43.91510        -1.33669
C         37.75574        45.97310        -0.72741
C         36.51803        46.60067        -0.25098
C         37.81028        48.72517         0.32618
C         36.62687        47.87877         0.47197
C         37.84372        49.97117         0.91680
C         36.63348        50.65797         1.33188
C         37.91558        52.74269         1.88281
C         36.68020        52.07070         1.66307
C         37.95886        54.11078         2.22028
C         36.73576        54.82342         2.29108
C         40.34543        16.16855         2.15522
C         39.18028        16.76286         1.76043
C         40.33104        18.92069         1.46371
C         39.05331        18.18517         1.52044
C         40.31074        20.38538         1.14152
C         39.01685        21.08512         1.05396
C         40.28129        23.23499         0.92726
C         39.02651        22.50888         0.98837
C         40.29402        24.64368         0.87416
C         39.04851        25.36493         0.90294
C         40.33857        27.48799         0.88664
C         39.04857        26.77600         0.85924
C         40.33547        28.98403         0.62851
C         39.03935        29.63093         0.37143
C         40.25251        31.73093        -0.07478
C         39.05050        31.02847         0.13745
C         40.25391        33.15997        -0.19500
C         38.97973        33.87086        -0.21474
C         40.23891        36.07885        -0.37237
C         38.95626        35.32303        -0.65150
C         40.25627        37.46534        -0.45197
C         39.00075        38.20149        -0.55510
C         40.23947        40.32212        -0.90759
C         39.00730        39.62105        -0.76396
C         40.22246        41.75093        -1.11536
C         38.98710        42.44529        -1.15057
C         40.25780        44.64501        -1.46689
C         38.94626        43.87970        -1.64339
C         40.24003        46.11624        -1.13097
C         38.96323        46.72944        -0.72754
C         40.28226        48.90941        -0.33450
C         38.96958        48.15984        -0.38901
C         40.36080        50.14627         0.48106
C         39.15345        50.61299         1.16648
C         40.44877        52.76046         1.66390
C         39.18902        52.00837         1.75706
C         40.45412        54.08919         2.19819
C         39.23989        54.74658         2.52811
C         40.52142        56.56064         3.53720
C         39.30653        56.00257         3.17827
C         42.92448        16.24371         2.35613
C         41.60697        16.98212         2.43429
C         42.67037        18.38684         0.68241
C         41.56969        18.09789         1.43799
C         42.64517        20.49123         0.19026
C         41.50050        21.12235         0.66379
C         42.76768        23.20484         0.62641
C         41.52014        22.53075         0.79498
C         42.76900        24.61415         0.64534
C         41.55021        25.33699         0.71940
C         42.77638        27.46466         0.30135
C         41.58452        26.75523         0.63783
C         42.72213        28.87231        -0.02130
C         41.54897        29.61454         0.07790
C         42.68339        31.74977        -0.43608
C         41.49848        31.02519        -0.19970
C         42.71445        33.16925        -0.37552
C         41.46874        33.85801        -0.25687
C         42.79241        36.06771        -0.22377
C         41.46426        35.32716        -0.11577
C         42.74913        37.49657        -0.58016
C         41.50785        38.18854        -0.57341
C         42.71379        40.25551        -1.07259
C         41.48406        39.59227        -0.84880
C         42.73727        41.71086        -1.46033
C         41.46010        42.47047        -1.21452
C         42.70564        44.60411        -0.99881
C         41.50729        43.88588        -1.22178
C         42.73245        46.02819        -0.81775
C         41.52020        46.77020        -0.76563
C         42.76667        48.83290        -0.33126
C         41.54710        48.14785        -0.47840
C         42.73968        50.30934        -0.12319
C         41.54453        50.84836         0.57168
C         42.89447        52.84092         1.30934
C         41.62035        52.15102         1.19745
C         42.93063        54.04732         2.10671
C         41.71347        54.68767         2.49870
C         42.99996        56.44519         3.63727
C         41.74289        55.91358         3.22333
C         44.04524        16.76644         1.77368
C         45.14713        18.78060         0.59423
C         44.00563        17.97372         0.97463
C         45.14255        20.21829         0.32377
C         43.95054        21.03366         0.30353
C         45.23407        23.09987         0.28325
C         43.99193        22.45031         0.45154
C         45.30081        24.57364         0.32025
C         44.03549        25.35097         0.53686
C         45.23443        27.42518        -0.16902
C         44.00598        26.77185         0.16857
C         45.22646        28.81494        -0.46388
C         43.92421        29.49602        -0.59099
C         45.17562        31.73703        -0.80856
C         43.90325        31.01926        -0.77558
C         45.20062        33.12407        -0.69786
C         43.96874        33.87320        -0.50472
C         45.23006        35.99481        -0.69587
C         44.01281        35.28338        -0.49529
C         45.22743        37.42059        -0.87201
C         43.96490        38.15581        -0.86760
C         45.19855        40.28953        -1.21692
C         43.94386        39.56550        -1.07463
C         45.23689        41.66374        -1.08360
C         43.95519        42.38018        -0.86723
C         45.24585        44.57431        -0.76250
C         43.95461        43.86267        -0.73080
C         45.23420        45.98288        -0.63481
C         43.97761        46.70619        -0.59552
C         45.23707        48.83849        -0.35064
C         43.98582        48.11301        -0.40201
C         45.25150        50.25674        -0.34817
C         44.02626        51.09535        -0.12074
C         45.30733        53.03620         1.03325
C         44.07593        52.36134         0.70552
C         45.38751        54.00343         2.08018
C         44.16439        54.60418         2.53518
C         44.16722        55.79029         3.33072
C         47.60757        18.82311         0.48553
C         46.41597        18.14341         0.64346
C         47.63907        20.22752         0.32759
C         46.39374        20.92623         0.25200
C         47.67842        23.08784         0.01155
C         46.42058        22.36287         0.13569
C         47.71148        24.48428        -0.22079
C         46.41159        25.20364        -0.48482
C         47.64901        27.37854        -0.61778
C         46.46315        26.70556        -0.33957
C         47.66270        28.80284        -0.73296
C         46.41881        29.49573        -0.75642
C         47.71329        31.68516        -1.07060
C         46.38031        30.93876        -1.08514
C         47.66827        33.11793        -0.75887
C         46.47023        33.83163        -0.70412
C         47.67864        36.00219        -0.78978
C         46.46991        35.28186        -0.70263
C         47.68614        37.40634        -1.02261
C         46.43897        38.09213        -1.09878
C         47.71645        40.26433        -1.20202
C         46.44894        39.52461        -1.55991
C         47.68568        41.68045        -1.15623
C         46.47366        42.40609        -1.08635
C         47.68179        44.58142        -0.85867
C         46.45895        43.85150        -0.91992
C         47.68455        45.95593        -0.57469
C         46.46868        46.68672        -0.52094
C         47.69688        48.84522        -0.41744
C         46.47287        48.13102        -0.43031
C         47.72694        50.24930        -0.42921
C         46.47845        50.88122        -0.58584
C         47.80185        52.98072         0.91770
C         46.53571        52.77527         0.36689
C         47.83764        53.80331         2.07805
C         46.67350        54.36881         2.57167
C         50.13408        20.28844         0.38027
C         48.89535        20.95024         0.28012
C         50.14045        23.08587         0.03589
C         48.90477        22.37242         0.11713
C         50.13696        24.48049        -0.26258
C         48.92663        25.17949        -0.39687
C         50.16541        27.39583        -0.70022
C         48.90077        26.59799        -0.96582
C         50.17172        28.77700        -0.68564
C         48.91899        29.52210        -0.78016
C         50.19243        31.64509        -0.79406
C         48.94704        30.91445        -0.81508
C         50.19429        33.03026        -0.78456
C         48.95205        33.77920        -0.53624
C         50.19762        36.01450        -0.89565
C         48.95517        35.31122        -0.59108
C         50.18144        37.39875        -1.02692
C         48.93396        38.12224        -1.08672
C         50.19783        40.27097        -0.99224
C         48.93915        39.55361        -1.11894
C         50.22710        41.67351        -1.03401
C         48.96737        42.40054        -1.26676
C         50.24654        44.58158        -0.86709
C         48.96228        43.90198        -1.14600
C         50.24919        45.96235        -0.69071
C         48.97660        46.65474        -0.40482
C         50.18824        48.88577        -0.92055
C         48.98897        48.14430        -0.36168
C         50.19946        50.32852        -0.44712
C         48.97255        50.99683        -0.19934
C         50.25422        52.92290         0.55721
C         49.00041        52.30889         0.37077
C         51.33753        20.98788         0.35087
C         52.63552        23.11732         0.21948
C         51.37729        22.38221         0.19217
C         52.67001        24.49653        -0.08474
C         51.42636        25.15696        -0.52594
C         52.69420        27.38825        -0.44511
C         51.44156        26.65947        -0.72711
C         52.67583        28.80137        -0.47391
C         51.43260        29.51635        -0.64303
C         52.69058        31.65489        -0.71228
C         51.44579        30.91142        -0.74985
C         52.70603        33.05033        -0.89239
C         51.42221        33.77883        -1.24441
C         52.68764        35.96926        -1.31868
C         51.48338        35.23742        -0.71751
C         52.67074        37.43374        -0.91382
C         51.44192        38.13048        -0.95998
C         52.66474        40.26645        -0.76436
C         51.43406        39.54837        -0.87944
C         52.67167        41.69574        -0.77234
C         51.44961        42.40466        -0.90917
C         52.69566        44.54742        -0.71485
C         51.46385        43.84300        -0.86578
C         52.69718        45.97901        -0.63216
C         51.47048        46.69607        -0.62640
C         52.67866        48.82741        -0.63420
C         51.48036        48.13467        -0.64709
C         52.65345        50.31541        -0.92383
C         51.42682        50.99903        -0.34083
C         51.43955        52.31074         0.15986
C         55.03609        23.16697         0.59957
C         53.84611        22.46987         0.56284
C         55.08653        24.55535         0.33207
C         53.88109        25.23656        -0.00607
C         55.10841        27.40163         0.01367
C         53.89137        26.67651        -0.17760
C         55.12107        28.82162        -0.09345
C         53.90278        29.52762        -0.33293
C         55.14606        31.67013        -0.38462
C         53.91187        30.94716        -0.46229
C         55.15818        33.05930        -0.61833
C         53.93902        33.78654        -0.85829
C         55.20070        35.95589        -1.01016
C         53.95283        35.19580        -1.02724
C         55.16152        37.43409        -0.79156
C         53.86257        38.14135        -0.72568
C         55.15750        40.26221        -0.61486
C         53.89076        39.55173        -0.65784
C         55.13962        41.67469        -0.70218
C         53.91761        42.40391        -0.70107
C         55.17046        44.55263        -0.57667
C         53.92988        43.83170        -0.67849
C         55.16480        45.98745        -0.51104
C         53.93096        46.69663        -0.54533
C         55.15659        48.84032        -0.45128
C         53.92880        48.12511        -0.53246
C         55.10333        50.29243        -0.42588
C         53.95958        50.98523        -0.60733
C         57.55689        24.61253         0.70118
C         56.33145        25.28457         0.43769
C         57.54696        27.42451         0.47465
C         56.32889        26.69648         0.30169
C         57.56602        28.84877         0.36425
C         56.35097        29.55546         0.06290
C         57.60892        31.67981         0.09089
C         56.37111        30.96047        -0.08632
C         57.65437        33.08331        -0.10152
C         56.46158        33.75313        -0.64616
C         57.65294        35.99834        -0.24300
C         56.49753        35.24845        -0.79485
C         57.57595        37.35544         0.01157
C         56.26530        38.09449         0.00384
C         57.60835        40.21187        -0.21192
C         56.37656        39.55806        -0.37298
C         57.72691        41.63282        -0.57467
C         56.39597        42.41348        -0.82133
C         57.63967        44.55365        -0.45564
C         56.40157        43.86241        -0.59690
C         57.62991        45.98493        -0.39870
C         56.39392        46.70236        -0.44414
C         57.65227        48.81483        -0.31716
C         56.39168        48.13629        -0.40003
C         58.73477        25.30834         0.85678
C         59.96172        27.45006         0.95023
C         58.75271        26.72320         0.76225
C         59.97419        28.81937         0.85747
C         58.78636        29.55266         0.55978
C         59.99917        31.73746         0.61769
C         58.80559        30.98405         0.43735
C         60.02323        33.10257         0.45870
C         58.85261        33.82623         0.08009
C         60.05951        36.03413         0.23209
C         58.86671        35.26281        -0.00042
C         60.01845        37.37150         0.47473
C         58.71266        38.08186         0.69005
C         59.86099        40.32559         0.70520
C         58.75026        39.56465         0.35562
C         59.91393        41.72361         0.51440
C         58.88397        42.41028        -0.11950
C         60.07541        44.59384        -0.16443
C         58.87598        43.84958        -0.27947
C         60.07362        45.97715        -0.19550
C         58.85738        46.69599        -0.28595
C         58.83456        48.12491        -0.25793
O         26.01655        37.98252        -2.16952
O         57.26101        41.96718        -1.91195
O         45.03750        25.11684         1.64003
O         34.69885        25.07156         2.61270
O         40.47295        28.46430         1.99016
O         51.52505        25.73059        -1.89294
O         47.05638        31.30714        -2.32841
O         39.32824        50.82231         2.61924
O         48.98912        43.25951        -2.47550
O         32.04183        37.91603        -2.00582
O         42.19246        35.77890         1.08599
O         43.13572        51.12683        -1.28683
O         46.45907        52.23649        -0.92255
O         49.14589        47.40216         0.88244
O         56.79760        34.40022        -1.94773
O         55.40002        36.94756        -2.14216
O         29.24004        34.59168        -2.38402
O         49.02150        34.57888         0.71566
O         40.49370        19.92038         2.57396
O         29.65173        45.77765         1.71330
O         30.29149        36.43959         0.75183
O         40.35589        45.63311        -2.55276
O         29.56131        42.15686        -2.03672
O         36.20963        47.76280         1.88704
O         26.76683        47.54447        -1.37643
O         33.67825        31.04335        -2.02220
O         42.49833        19.24561        -0.41436
O         39.44541        49.01959        -1.52916
O         43.72211        30.09696        -1.91285
O         43.80284        42.94496         0.46192
O         33.81332        27.50078         2.51521
H         34.32881        26.92666         3.12844
O         31.58411        39.56369         1.24260
H         31.55555        40.49056         1.55965
O         32.69994        23.24957         2.99724
H         33.44190        23.82765         3.30438
O         28.71244        48.06386         2.42458
H         29.25908        47.35472         2.83687
O         52.46339        50.42587        -2.38833
H         53.26692        50.05710        -2.81411
O         37.67739        31.75158         1.91158
H         36.93385        32.36478         2.13644
O         46.08844        24.95888        -1.88915
H         46.81657        25.35477        -2.42235
O         42.95788        41.76049        -2.91341
H         42.18225        41.34884        -3.34997
O         51.73044        35.16738         0.70956
H         50.87452        34.90979         1.13391
O         37.96476        36.00553         1.44106
H         37.64005        36.84532         1.82892
O         25.60312        27.06335        -2.50876
H         24.79454        27.46962        -2.88874
O         32.94401        48.28401         2.72326
H         33.11824        47.32495         2.83191
O         32.58343        45.10531        -2.14569
H         32.85019        44.36607        -2.73345
O         46.46741        39.43800        -3.04004
H         46.47360        40.35674        -3.38562
O         35.86762        33.14855        -2.13719
H         35.21384        32.62856        -2.65625
O         58.43061        38.02944         2.15662
H         58.57882        37.10174         2.44160
O         36.03083        33.86272         1.46755
H         36.59905        34.52415         1.93216
O         38.73519        35.34986        -2.08668
H         39.32231        34.68860        -2.50768
O         51.27487        33.75893        -2.69038
H         51.86381        34.45874        -3.07139
O         52.58237        36.02464        -2.78191
H         53.44046        36.38655        -3.10551
O         38.77797        43.72992        -3.10412
H         39.16706        44.55171        -3.49532
O         26.59144        39.26105         1.22647
H         26.63985        40.15634         1.64599
O         36.14918        43.94902        -2.79123
H         37.01427        43.74222        -3.23662
O         55.78121        38.05127         1.38834
H         56.55838        38.26266         1.96527
O         26.60841        42.10347         1.53898
H         25.87305        42.61410         1.94173
O         25.21495        33.00204        -2.82298
H         26.06289        32.69272        -3.20827
O         36.75718        29.26908        -1.60947
H         35.95645        29.62853        -2.05051
O         50.01965        48.90236        -2.36635
H         50.75082        49.46522        -2.72239
O         48.84431        26.38876        -2.42029
H         49.74292        26.06554        -2.68090
O         41.50648        17.50160         3.79575
H         41.06451        18.38019         3.74788
H         22.08238        26.69272        -0.55219
H         22.04810        29.13855        -0.82635
H         22.05900        31.03753        -0.47289
H         22.06399        33.45823        -0.29833
H         21.99350        35.34996        -0.46179
H         21.92707        37.77144        -0.35456
H         21.89593        39.73060        -0.95351
H         21.88978        42.16054        -0.80236
H         21.88928        44.07125        -0.41903
H         21.94100        46.51795        -0.24794
H         25.45438        23.38328        -0.08805
H         23.32736        24.56108        -0.34000
H         25.27379        49.85311         0.48812
H         23.18612        48.60948         0.17876
H         27.03665        22.52922         0.35308
H         27.20119        50.82297        -0.00888
H         29.10015        21.38226         0.89004
H         29.26981        51.92713         0.68389
H         32.84126        19.28154         1.11463
H         30.75830        20.46926         0.80022
H         32.96904        53.95723         1.58540
H         30.85599        52.81832         1.22994
H         34.45980        18.34748         1.40954
H         34.61023        54.78588         2.10680
H         36.55395        17.14264         1.56038
H         36.73575        55.89516         2.53078
H         40.36157        15.08115         2.32811
H         38.28570        16.12996         1.65128
H         40.54691        57.51555         4.08169
H         38.38079        56.52850         3.44852
H         43.01792        15.32317         2.95215
H         43.02210        57.38134         4.21346
H         45.00365        16.24455         1.91801
H         45.12507        56.21506         3.66051
H         48.54138        18.24731         0.52061
H         46.45565        17.05673         0.79955
H         48.79800        54.02761         2.56301
H         46.74511        55.06585         3.41748
H         50.17518        19.19764         0.49489
H         50.29647        53.93454         0.98467
H         52.26891        20.41437         0.44384
H         52.38347        52.86248         0.26370
H         55.94851        22.62182         0.87153
H         53.85444        21.40032         0.80814
H         56.03335        50.85335        -0.25856
H         53.99923        52.08380        -0.62667
H         57.58059        23.51830         0.78059
H         57.68073        49.91211        -0.29316
H         59.67243        24.77226         1.06162
H         60.88684        26.89940         1.17303
H         60.92281        29.35015         1.00906
H         60.93217        31.22940         0.89376
H         60.96904        33.63640         0.61947
H         61.03873        35.53679         0.18021
H         60.95853        37.92107         0.62394
H         60.71330        39.84403         1.20377
H         60.79190        42.26767         0.88937
H         61.03246        44.06276        -0.06805
H         61.02059        46.53105        -0.12331
H         59.78769        48.66845        -0.18447
