         261
 CSIRO Nanostructure Databank - Neutral Graphene Oxide Data Set
C        -11.18470         0.79045        -0.05379
C         -9.99187         1.53813        -0.62298
C         -8.70092         0.80084        -0.30594
C         -7.43806         1.53557        -0.58074
C         -6.18092         0.74283        -0.75969
C         -4.91009         1.43632        -0.39661
C         -3.79133         0.63021         0.18439
C         -2.53210         1.35004         0.61811
C         -1.21917         0.53563         0.71871
C          0.02403         1.39011         0.35515
C          1.30674         0.66689         0.06688
C          2.65527         1.40542         0.14619
C          3.96035         0.62099         0.25920
C          5.34303         1.34628         0.15973
C          6.22735         0.81394        -0.96559
C          7.41212         1.64711        -1.35655
C          8.74538         1.12049        -1.91267
C          9.98666         1.61373        -1.20173
C         11.14750         0.73601        -0.98239
C         -9.84355         2.98361        -0.17048
C         -8.70208         3.68307        -0.36714
C         -7.50451         3.00534        -1.07322
C         -6.13637         3.72470        -0.76860
C         -4.90616         2.95429        -0.32915
C         -3.85325         3.66374         0.54653
C         -2.56461         2.84274         0.80472
C         -1.22800         3.55067         1.05629
C          0.07340         2.79573         0.91056
C          1.39167         3.55904         0.93256
C          2.64369         2.89138         0.39942
C          3.95113         3.58784         0.70920
C          5.22768         2.86879         0.35409
C          6.46894         3.67277         0.03115
C          7.49522         3.08621        -0.90703
C          8.82258         3.79402        -0.93567
C         10.03654         2.94425        -0.90313
C         -8.71742         5.20035        -0.22018
C         -7.38305         5.84990         0.10536
C         -6.15760         5.20796        -0.45377
C         -4.83285         5.87012        -0.26048
C         -3.57119         5.04829        -0.02552
C         -2.33013         5.76834         0.42559
C         -1.21858         5.06557         1.15663
C          0.08578         5.81991         1.34644
C          1.39851         5.05406         1.20042
C          2.61023         5.80467         0.67975
C          3.95020         5.10995         0.81742
C          5.24271         5.88603         0.66177
C          6.52202         5.16454         0.27394
C          7.68036         5.91318        -0.31014
C          8.83385         5.24026        -0.57029
C         -7.32974         7.02774         0.77523
C         -6.05199         7.73472         1.06697
C         -4.80953         7.16153         0.49044
C         -3.59596         8.00910         0.27213
C         -2.29399         7.28113         0.39019
C         -1.25050         8.06317         1.18844
C          0.13789         7.36490         1.40569
C          1.40450         8.12628         0.97416
C          2.59412         7.28894         0.53325
C          3.87486         8.08005         0.49729
C          5.21075         7.38151         0.43948
C          6.37470         8.11727        -0.17276
C          7.61109         7.38481        -0.65850
C         -5.97898         9.15663         1.51192
C         -4.87382         9.90916         1.36100
C         -3.74824         9.51759         0.42309
C         -2.39366        10.18003         0.53574
C         -1.20035         9.47254         0.60415
C          0.00055        10.03896         0.11832
C          1.25714         9.39100         0.16214
C          2.38630         9.96426        -0.40314
C          3.73909         9.47371        -0.09363
C          4.90895        10.03834        -0.79566
C          6.10459         9.42051        -0.83266
C        -11.20146        -0.52325         0.24633
C        -10.01439        -1.41085         0.12302
C         -8.72852        -0.70971        -0.21004
C         -7.60008        -1.47124        -0.82795
C         -6.29167        -0.75753        -0.83347
C         -5.09208        -1.55625        -0.45929
C         -3.81757        -0.84502        -0.06321
C         -2.51695        -1.49053        -0.41908
C         -1.24985        -0.74340        -0.14345
C         -0.01995        -1.59329         0.03084
C          1.28947        -0.83925         0.18473
C          2.58274        -1.56913        -0.01137
C          3.91021        -0.84170        -0.06375
C          4.92625        -1.42411        -1.03649
C          6.27746        -0.71083        -1.04199
C          7.54304        -1.46522        -0.78062
C          8.74406        -0.77366        -0.18410
C         10.05058        -1.45839        -0.38832
C         11.19239        -0.58692        -0.64808
C        -10.08592        -2.86580         0.02443
C         -8.93573        -3.68438        -0.40999
C         -7.68139        -2.97905        -0.85686
C         -6.38213        -3.74412        -1.06091
C         -5.11675        -3.03693        -0.63259
C         -3.79220        -3.76069        -0.60319
C         -2.52164        -2.96461        -0.82500
C         -1.22993        -3.72904        -0.90862
C         -0.03021        -3.07822        -0.25500
C          1.28234        -3.82883        -0.27051
C          2.57004        -3.06081        -0.29488
C          3.77857        -3.77435        -0.82474
C          5.03729        -2.98142        -0.96457
C          6.25119        -3.60816        -0.31780
C          7.56914        -2.95994        -0.57823
C          8.84404        -3.65187        -0.20302
C         10.09184        -2.81573        -0.21710
C         -8.88996        -5.18165        -0.06815
C         -7.59794        -5.94914        -0.43024
C         -6.39657        -5.23986        -0.95850
C         -5.08447        -5.99576        -0.94268
C         -3.79766        -5.25188        -0.69133
C         -2.53610        -5.99643        -1.03911
C         -1.24424        -5.24355        -1.10097
C          0.05227        -6.01937        -0.98791
C          1.28522        -5.33034        -0.52289
C          2.57828        -6.09485        -0.52338
C          3.84999        -5.28772        -0.62108
C          5.12348        -5.91039        -0.15872
C          6.26438        -5.00617         0.20581
C          7.54918        -5.61997         0.67064
C          8.72448        -4.95421         0.53081
C         -7.52111        -7.26806        -0.12892
C         -6.38657        -8.22450        -0.50824
C         -5.08194        -7.48384        -0.80550
C         -3.78158        -8.23556        -0.65424
C         -2.50821        -7.44042        -0.60486
C         -1.22341        -8.17238        -0.45222
C          0.07478        -7.49754        -0.76830
C          1.30010        -8.31761        -0.37794
C          2.64747        -7.62516        -0.56186
C          3.81538        -8.11676         0.25954
C          5.11177        -7.31934         0.34879
C          6.23388        -7.78163         1.21734
C          7.37855        -6.82312         1.60469
C         -6.14949        -9.30212         0.54060
C         -4.98255        -9.94410         0.74689
C         -3.71450        -9.61375         0.04276
C         -2.40181       -10.10162         0.45616
C         -1.21831        -9.71652        -0.40852
C          0.24438       -10.14889        -0.07421
C          1.15983        -9.28545         0.77845
C          2.24372        -9.72108         1.46813
C          3.50222        -8.87769         1.55569
C          4.73838        -9.57054         2.10371
C          5.95831        -9.00588         2.03488
O         -5.22137         1.09109        -1.78860
O          2.08536        -3.66261         0.92865
O          2.38095         6.42861        -0.63204
O         -5.48496         5.95830        -1.54289
O         -1.81162        -3.10323        -2.08600
O          1.69403         4.11738         2.25125
O         -6.44020        -4.53767        -2.25840
O          4.18142        -0.39562         1.28300
O         -1.83601        -0.65778        -1.44590
O          1.64599         8.49498         2.39125
O          2.01461        -1.31053         1.32177
O         -0.78852         5.46576         2.46926
O          6.22978         1.48390        -2.23261
O         -2.83097         1.94666         1.92586
O         -5.04183        -6.85555        -2.12921
O         -1.87803         8.16847         2.48247
O          0.23713        -6.94060        -2.10394
O          6.24180        -8.08062        -0.21252
O         -1.96440        -5.64952        -2.31125
O          4.71021         5.55390         1.97286
O          4.77819        -5.86683        -1.57650
O          7.04001         4.21539         1.25671
O          1.03128        -9.56962        -1.22268
O         -3.71921        -4.60407         0.60749
O         -4.06672        -0.31507         1.27294
O         -5.03157         3.48570        -1.67199
O          8.83333         0.44976        -2.91633
O         -8.66817        -3.40351        -1.84344
O         -8.92025        -1.11337         1.17397
O          8.63802         0.20037         0.54573
O          7.11835        -1.14783        -2.13914
O          4.77039         3.02227         1.74765
O         -1.86273        -7.56720         0.72276
O         -2.75664         7.75200        -0.90242
O          2.68404         2.37904        -0.95640
O         -7.92275         1.38273         0.79404
O          8.31495        -3.69455        -1.59235
O         -2.45394         5.17119        -0.92350
O          3.88601         9.22815         1.36215
O         -3.81914        -9.43637        -1.42560
O         -5.42119        -2.45382         0.67365
O         -0.58202         2.90966         2.19293
O          3.62006        -8.52938        -1.12411
O          0.46954         1.19660        -1.00733
O          5.92653        -3.87281         1.09825
O         -0.29311        -2.56869         1.08304
O         -7.00267        -1.04059        -2.08311
O          7.90791         3.79698        -2.12284
O          6.20428         8.07047         1.26662
O          4.35560        -3.50173        -2.13663
O         -5.10416         6.93896         1.90851
O         -7.84769         3.04330        -2.41657
O          1.80355        -5.93629         0.71548
O         -4.20800         9.98385        -0.88490
H         -3.68978         9.49202        -1.56191
O          6.12866         0.92830         1.29399
H          5.72705         1.31035         2.10703
O          7.60836         7.49353        -2.09134
H          8.24970         6.85253        -2.46283
O         -1.43318       -10.21827        -1.73618
H         -0.63139       -10.00166        -2.26461
O          3.23661        -7.76788         2.47129
H          2.94691        -8.13565         3.33212
O        -10.13639         1.55278        -2.06267
H         -9.38201         2.10899        -2.42468
O          4.31300        -1.08862        -2.29696
H          4.95020        -1.30237        -3.01425
O         -1.06385         0.08863         2.06129
H         -1.39004         0.80246         2.65858
O          7.14327        -6.30362         2.92070
H          6.50037        -5.56522         2.86420
O         -9.14875        -5.33733         1.33173
H         -8.46500        -4.85925         1.84457
O         -4.46094         3.91186         1.82812
H         -4.25069         3.15423         2.42210
O         -6.80978        -8.89294        -1.71410
H         -6.50636        -8.34616        -2.47330
O          0.52953         7.63951         2.82063
H         -1.16818         8.20234         3.16772
O         -9.71282         5.60102         0.71799
H         -9.47080         5.24663         1.59807
H         12.18787        -1.05135        -0.56250
H         12.12299         1.24560        -1.06312
H         10.94291         3.37957        -0.45268
H          9.72256         5.81144        -0.88887
H          8.52575         7.90712        -0.25045
H          6.92597         9.86081        -1.41582
H          4.76150        10.97943        -1.34655
H          2.28362        10.88451        -0.99790
H         -0.05097        11.03055        -0.35716
H         -2.34915        11.22412         0.18291
H         -4.84859        10.92622         1.78012
H         -6.82168         9.54162         2.10769
H         -8.26903         7.47890         1.13256
H         -9.03382         5.60718        -1.22106
H        -10.72760         3.50605         0.23092
H        -12.11897         1.36332         0.05807
H        -12.13526        -0.98531         0.60377
H        -11.02511        -3.37606         0.28631
H         -9.74070        -5.67882        -0.60079
H         -8.41083        -7.74677         0.31179
H         -7.03165        -9.62502         1.11516
H         -4.93633       -10.73404         1.51270
H         -2.26316       -10.51051         1.46752
H          0.36838       -11.25331        -0.00140
H          2.21275       -10.68539         2.00130
H          4.60223       -10.50245         2.67559
H          6.81670        -9.49324         2.52299
H          8.33120        -7.40953         1.64792
H          9.64158        -5.37142         0.97553
H         11.05724        -3.34656        -0.26121
