         424
 CSIRO Nanostructure Databank - Neutral Graphene Oxide Data Set
C          1.38141         3.32160         0.84084
C          0.19110         3.99178         0.82852
C          1.27863         6.19294         0.74639
C          0.14780         5.42216         0.68902
C          1.27945         7.62769         0.45321
C          0.03724         8.32572         0.18508
C          1.17083        10.47942        -0.03614
C         -0.01390         9.68610         0.01102
C          1.19486        11.87500        -0.19268
C         -0.03173        12.63977        -0.32100
C          1.19705        14.74312        -0.72904
C         -0.04646        13.97852        -0.51456
C          1.18580        16.22414        -0.68143
C         -0.01571        16.91464        -0.87226
C          1.13047        19.04754        -0.72567
C         -0.04761        18.30649        -0.89219
C          1.05935        20.52471        -0.62175
C         -0.09798        21.30116        -1.08450
C          1.17271        23.41585        -1.00560
C         -0.05294        22.65949        -1.15508
C          1.17454        24.87617        -0.99602
C         -0.02526        25.61071        -0.94340
C          1.17981        27.72617        -0.74291
C         -0.02079        26.99512        -0.80313
C          1.19440        29.16232        -0.52783
C          0.00732        29.89126        -0.33643
C          1.23841        31.96822        -0.00103
C          0.03382        31.25695        -0.05750
C          1.27738        33.36785         0.41505
C          0.13168        34.00747         0.96621
C          1.38367        36.06112         1.30339
C          0.17817        35.32232         1.38353
C          1.45350        37.42544         1.72899
C          3.81998         3.43081         0.55494
C          2.62275         4.05134         0.80046
C          3.81756         6.27147         0.72854
C          2.57888         5.51991         1.15231
C          3.76233         7.76311         0.91860
C          2.45912         8.34115         0.40802
C          3.66567        10.54803         0.35566
C          2.47739         9.74522        -0.12380
C          3.60536        11.96046         0.36239
C          2.43605        12.59878        -0.05916
C          3.70309        14.82142        -0.08347
C          2.49739        14.02555        -0.43197
C          3.65010        16.25172        -0.27213
C          2.40836        16.94090        -0.52493
C          3.61593        19.12459        -0.55553
C          2.37202        18.37407        -0.56163
C          3.62344        20.50692        -0.71279
C          2.39309        21.29172        -0.60535
C          3.64709        23.41765        -0.98994
C          2.37836        22.72607        -0.93430
C          3.65620        24.88327        -0.98744
C          2.40775        25.58941        -0.94891
C          3.65017        27.73669        -0.89593
C          2.41817        27.01999        -0.86634
C          3.66666        29.17147        -0.73619
C          2.43825        29.86351        -0.49701
C          3.69561        31.98053        -0.37008
C          2.46349        31.27686        -0.28840
C          3.65418        33.48473        -0.41543
C          2.48279        34.08178         0.32768
C          3.78529        36.14788         0.73876
C          2.54901        35.42628         0.78085
C          3.83138        37.49787         1.18345
C          2.63055        38.12255         1.66034
C          6.25138         3.52045         0.22116
C          5.04992         4.16924         0.40761
C          6.22672         6.37659         0.19651
C          4.99651         5.62951         0.44150
C          6.18259         7.81214         0.14337
C          4.97431         8.48960         0.38557
C          6.08912        10.71843        -0.12764
C          4.90580         9.89608         0.32309
C          6.09892        12.10910         0.44399
C          4.79859        12.74022         0.88401
C          6.00647        14.99633         0.91681
C          4.81348        14.19009         0.45855
C          6.05494        16.36964         0.30006
C          4.85874        17.01294        -0.12700
C          6.09156        19.14543        -0.27519
C          4.87027        18.41439        -0.38375
C          6.12217        20.56363        -0.49111
C          4.89618        21.21209        -1.10285
C          6.06460        23.46984        -0.67991
C          4.82379        22.70612        -0.93957
C          6.14550        24.85075        -1.27170
C          4.85538        25.59514        -1.03494
C          6.12528        27.71202        -1.05513
C          4.88394        27.02350        -1.01616
C          6.11681        29.19427        -1.30020
C          4.88055        29.88818        -0.79339
C          6.17354        32.03003        -0.66987
C          4.90758        31.30181        -0.61764
C          6.18047        33.44801        -0.38534
C          4.97684        34.13317        -0.09995
C          6.22102        36.20588         0.34116
C          4.99248        35.48740         0.32011
C          6.25113        37.59048         0.76063
C          5.05606        38.20288         1.17745
C          8.68342         3.57128        -0.10587
C          7.48190         4.24278         0.05187
C          8.66506         6.42964        -0.12752
C          7.43852         5.69230         0.03284
C          8.63178         7.83506        -0.15381
C          7.40547         8.57050        -0.05951
C          8.59356        10.74769         0.21011
C          7.39762         9.98308        -0.00741
C          8.58300        12.09081         0.54361
C          7.34684        12.90405         0.22360
C          8.50526        14.97923         1.08292
C          7.34202        14.28293         0.82095
C          8.40405        16.45125         1.04250
C          7.25093        17.08177         0.42889
C          8.49475        19.22610         0.28631
C          7.28381        18.48592         0.14358
C          8.52719        20.61233         0.01074
C          7.30053        21.27496        -0.30762
C          8.59387        23.46741        -0.37022
C          7.31474        22.74795        -0.34182
C          8.57778        24.89510        -0.53995
C          7.38094        25.59620        -0.84199
C          8.60011        27.73548        -0.83094
C          7.36488        27.01180        -0.91769
C          8.58988        29.17195        -0.90518
C          7.40805        29.89526        -0.95903
C          8.65153        32.05024        -0.80395
C          7.40067        31.34231        -0.84569
C          8.67050        33.48812        -0.62285
C          7.41558        34.17539        -0.36860
C          8.62161        36.36678        -0.24869
C          7.40371        35.55692        -0.08196
C          8.68314        37.71310         0.35915
C          7.48197        38.29685         0.80236
C         11.10743         3.58370        -0.50469
C          9.92582         4.26800        -0.30485
C         11.13807         6.42262        -0.27146
C          9.91228         5.72568        -0.27896
C         11.16064         7.84562        -0.11567
C          9.89402         8.57342        -0.28700
C         11.12673        10.70501         0.41355
C          9.88369        10.06307        -0.01674
C         11.10309        12.05433         0.84603
C          9.78112        12.73432         1.21539
C         11.02953        14.86146         1.40948
C          9.80968        14.26999         1.17021
C         11.25250        16.28438         1.66245
C          9.41067        17.31803         1.42982
C         10.93051        19.23304         0.77966
C          9.66138        18.60578         0.83998
C         10.97047        20.60505         0.37572
C          9.76231        21.31446         0.09327
C         11.01635        23.43876        -0.00653
C          9.78680        22.74628        -0.10571
C         10.97948        24.92489         0.21896
C          9.78780        25.63313        -0.37587
C         11.07990        27.74033        -0.44172
C          9.81363        27.02496        -0.57359
C         11.11779        29.15833        -0.64026
C          9.89645        29.87240        -1.15242
C         11.12148        32.01735        -0.80904
C          9.88884        31.35102        -0.86250
C         11.16464        33.50122        -1.02790
C          9.88101        34.17476        -0.62236
C         11.18463        36.31019        -0.17973
C          9.92111        35.63918        -0.52831
C         11.15971        37.68189         0.20806
C          9.92106        38.35590         0.45759
C         13.63581         3.56926        -0.69101
C         12.35624         4.31684        -0.91433
C         13.57638         6.35964        -0.05904
C         12.38825         5.71789        -0.36046
C         13.58395         7.77592         0.25454
C         12.34650         8.52977         0.13694
C         13.53074        10.59946         0.78843
C         12.33168         9.95788         0.40646
C         13.55910        11.99416         1.01609
C         12.31828        12.69546         1.08900
C         13.55787        14.88760         1.26152
C         12.30280        14.08234         1.66522
C         13.41806        16.25906         0.64852
C         12.25506        17.03769         1.13518
C         13.47461        19.17254         0.50136
C         12.25999        18.56588         1.21611
C         13.45866        20.58010         0.26333
C         12.22351        21.30841         0.26315
C         13.48339        23.43151        -0.07964
C         12.23275        22.72285         0.07502
C         13.48693        24.88522        -0.10625
C         12.28237        25.61852        -0.03987
C         13.53965        27.78925         0.08876
C         12.26323        27.02554        -0.16557
C         13.59409        29.08225        -0.70738
C         12.31537        29.86830        -0.61313
C         13.59513        31.99250        -0.58119
C         12.35223        31.29710        -0.70930
C         13.61739        33.44311        -0.47248
C         12.43020        34.17318        -0.53933
C         13.61518        36.29633        -0.02454
C         12.40896        35.59958        -0.25507
C         13.60711        37.67164         0.32386
C         12.38304        38.34544         0.45736
C         16.05405         3.46248        -0.34516
C         14.79912         4.19029        -0.34532
C         15.98647         6.20687         0.44851
C         14.83255         5.61863         0.00492
C         16.01485         7.62053         0.98262
C         14.75439         8.38764         0.66163
C         16.08275        10.55469         0.97733
C         14.74567         9.81216         0.99296
C         16.02830        12.01079         0.79164
C         14.82991        12.68521         1.02284
C         15.98917        14.86294         0.39134
C         14.83549        14.16258         1.00662
C         15.95292        16.24068         0.19354
C         14.66174        16.97021         0.23378
C         15.86136        19.11646        -0.15236
C         14.64916        18.45273         0.22858
C         15.85017        20.51358        -0.31138
C         14.66020        21.25594        -0.11467
C         15.93409        23.37684        -0.42769
C         14.66392        22.69459        -0.25727
C         15.95043        24.85636        -0.71103
C         14.72590        25.59255        -0.25141
C         16.02459        27.68435        -0.26566
C         14.78469        26.97855        -0.19077
C         16.05533        29.11121        -0.25338
C         14.84126        29.86839        -0.40044
C         16.13343        31.99137        -0.47085
C         14.81406        31.25946        -0.43338
C         16.07277        33.44207        -0.06716
C         14.87986        34.12241        -0.20138
C         16.11634        36.27275         0.30988
C         14.91805        35.62511        -0.33366
C         16.05542        37.66240         0.63050
C         14.85450        38.34347         0.59612
C         18.49857         3.37357        -0.15963
C         17.23131         4.05491         0.00000
C         18.48708         6.22316         0.24847
C         17.25862         5.42121         0.64471
C         18.48869         7.64336         0.30302
C         17.28044         8.38198         0.59596
C         18.45411        10.53334         0.27307
C         17.29810         9.79131         0.61140
C         18.41413        11.95476         0.11290
C         17.21822        12.70340         0.37445
C         18.37604        14.80455        -0.21303
C         17.19168        14.11181         0.17486
C         18.36748        16.22991        -0.32132
C         17.14239        16.96581        -0.14932
C         18.34257        19.07355        -0.55760
C         17.10818        18.37265        -0.31631
C         18.36374        20.49211        -0.70210
C         17.05349        21.21646        -0.88116
C         18.44275        23.31331        -0.28614
C         17.09955        22.67533        -0.51245
C         18.44116        24.82338        -0.33953
C         17.24345        25.54132        -0.33984
C         18.50412        27.63883        -0.06707
C         17.26353        26.95663        -0.23545
C         18.51136        29.06706         0.09375
C         17.29255        29.77073        -0.02937
C         18.54030        31.95693         0.43889
C         17.24685        31.22227         0.20123
C         18.55032        33.42798         0.28059
C         17.32730        34.13297         0.17868
C         18.57684        36.25115         0.59009
C         17.32361        35.55479         0.37632
C         18.57928        37.64939         0.82333
C         17.29299        38.38140         1.11663
C         19.66510         4.06796        -0.13753
C         20.87930         6.22822        -0.21460
C         19.67896         5.51819        -0.02172
C         20.89038         7.61963        -0.14045
C         19.71344         8.34032         0.08747
C         20.74548        10.51808        -0.69812
C         19.79416         9.84003         0.25321
C         20.66673        11.85191        -0.90130
C         19.56396        12.64069        -0.38814
C         20.75258        14.78584        -0.81490
C         19.56911        14.06222        -0.48127
C         20.75859        16.15875        -0.84918
C         19.57600        16.91693        -0.60617
C         20.77959        19.08015        -0.82270
C         19.57433        18.35478        -0.65580
C         20.77888        20.45660        -0.92748
C         19.56677        21.18214        -0.89810
C         20.84274        23.40656        -0.90623
C         19.53568        22.68534        -1.15479
C         20.88858        24.68665        -0.47456
C         19.68925        25.48686        -0.26440
C         20.94913        27.62829         0.08852
C         19.72640        26.90113        -0.08631
C         20.95929        28.98860         0.26896
C         19.75937        29.76879         0.26847
C         20.99129        31.94539         0.34203
C         19.79686        31.19131         0.36743
C         20.98847        33.33467         0.38247
C         19.79500        34.10468         0.36232
C         21.01726        36.29203         0.51915
C         19.81249        35.55376         0.46873
C         21.00148        37.66885         0.69856
C         19.78608        38.34639         0.87147
O         17.61459        31.58566         1.55583
O          6.43188        23.36523         0.73450
O          9.94044         9.54238        -1.39896
O         15.46877        10.13212         2.24804
O         10.28594        16.92624         2.44592
O         14.54437        14.82711         2.34040
O          9.17233        36.31868        -1.61367
O          2.03996        14.22679        -1.82150
O         13.71239        16.36896        -0.77498
O          1.63358        21.01022         0.62921
O         10.78119        25.05582         1.69129
H          9.92102        24.63240         1.90444
O          6.26489        24.66201        -2.72000
H          6.26329        25.54964        -3.13746
O          9.61886        12.43150         2.64391
H         10.38467        12.83864         3.11282
O          7.43426        13.16204        -1.24168
H          7.02385        12.38460        -1.69818
O          5.04435        20.99112        -2.55962
H          5.12571        20.02356        -2.70208
O         18.80500        22.95419         1.08567
H         18.16955        23.38895         1.69214
O          4.70170        12.68880         2.34930
H          5.25619        13.42748         2.70342
O         17.33304        39.72159         0.61180
H         17.35372        39.67864        -0.36597
O         16.52698        32.01372        -1.89148
H         15.78652        32.41241        -2.39690
O         12.32195        13.89801         3.11177
H         13.26566        14.01377         3.38990
O         12.24311         4.47124        -2.38603
H         11.42576         4.98646        -2.55811
O         20.36390        10.04800         1.60400
H         20.39173        11.01658         1.75839
O          3.75660         8.01430         2.36562
H          3.17603         7.32178         2.77181
O          3.40826        33.80846        -1.84351
H          3.37869        34.78667        -1.91537
O          2.57478         5.56482         2.64049
H          3.31316         4.99485         2.94659
O          6.02801        29.33578        -2.78790
H          5.81349        30.27617        -2.97266
O         11.21116        33.67063        -2.50734
H         11.01888        34.61595        -2.69390
O         13.70357        28.68856        -2.11467
H         13.41303        29.44565        -2.66590
O          5.80017        15.22296         2.37538
H          5.03274        15.82727         2.47189
O         10.05019        29.79209        -2.62845
H          9.28320        30.25763        -3.02643
O         13.54034        28.14189         1.50046
H         13.35566        27.32839         2.01536
O         17.39729         5.16592         2.08066
H         17.08121         5.97712         2.55002
O         16.84214        21.22783        -2.34243
H         17.49661        21.87255        -2.71099
O         15.89396        24.92137        -2.18597
H         15.74028        25.85869        -2.43306
O         16.06335         7.50661         2.45517
H         15.96846         8.43270         2.79890
O         12.43425        18.92595         2.61923
H         11.70569        18.48997         3.11565
O          5.88832        10.88242        -1.60401
H          5.93531         9.98530        -2.00181
O         15.11813        35.84477        -1.79695
H         15.99820        35.47164        -2.02107
O          2.73549         9.60086        -1.58467
H          2.70507        10.50338        -1.97153
O         19.15367        22.88080        -2.54775
H         19.88420        22.55441        -3.11349
H          1.40956         2.22227         0.81428
H         -0.75695         3.43597         0.82586
H         -0.83054         5.87365         0.47341
H         -0.90762         7.76679         0.20745
H         -0.99809        10.16715        -0.07956
H         -0.98948        12.11260        -0.21202
H         -1.01028        14.50575        -0.52025
H         -0.95504        16.36544        -1.01602
H         -1.01090        18.81678        -1.02239
H         -1.02136        20.77757        -1.37027
H         -0.96699        23.19559        -1.44706
H         -0.99279        25.09237        -0.97532
H         -0.98721        27.51133        -0.73105
H         -0.96723        29.38734        -0.37457
H         -0.92104        31.77015         0.11775
H         -0.81236        33.45474         1.06162
H         -0.72173        35.80405         1.79234
H          0.54279        37.90658         2.11441
H          3.84901         2.33918         0.41221
H          2.67761        39.17008         1.99155
H          6.28102         2.42035         0.21339
H          5.07639        39.24806         1.52010
H          8.69422         2.47101        -0.10084
H          7.49529        39.32226         1.20082
H         11.10060         2.48350        -0.53706
H          9.95908        39.38445         0.84665
H         13.64883         2.49735        -0.94244
H         12.37288        39.40336         0.75802
H         16.05060         2.42979        -0.72826
H         14.83535        39.41289         0.85206
H         18.49430         2.29121        -0.35899
H         17.21316        38.47572         2.23806
H         20.62524         3.55338        -0.29005
H         21.81162         5.67837        -0.40733
H         21.84563         8.15093        -0.25103
H         21.57556         9.94816        -1.13902
H         21.41968        12.34588        -1.53196
H         21.68728        14.24433        -1.01236
H         21.69897        16.67167        -1.08939
H         21.74060        18.55211        -0.86889
H         21.73758        20.97614        -1.05713
H         21.79023        22.89654        -1.13561
H         21.87070        25.16577        -0.34926
H         21.90462        27.08635         0.10193
H         21.92569        29.48857         0.42084
H         21.96217        31.43235         0.30566
H         21.95919        33.84763         0.41032
H         21.98369        35.78161         0.41248
H         21.94738        38.22730         0.72899
H         19.77313        39.43186         1.04269
