         600
 CSIRO Nanostructure Databank - Neutral Graphene Oxide Data Set
C         23.05616        27.50034        -1.40394
C         23.02438        28.82008        -1.12182
C         22.93080        31.68597        -0.39229
C         22.92483        33.07183        -0.40656
C         22.93822        35.99178        -0.35786
C         22.94213        37.36826        -0.30158
C         22.95523        40.28981        -0.10112
C         22.96439        41.66546         0.01015
C         22.98212        44.58203         0.30630
C         22.99480        45.95085         0.49532
C         25.40275        24.54784        -1.13762
C         24.19383        25.30496        -1.24640
C         25.34434        27.31491        -0.40827
C         24.16547        26.65725        -0.99571
C         25.39887        28.78594        -0.38102
C         24.06459        29.46011        -0.22017
C         25.36419        31.64415        -0.23245
C         24.13298        30.96210        -0.32856
C         25.36066        33.08223        -0.21787
C         24.13213        33.79980        -0.32131
C         25.37403        35.94678        -0.17625
C         24.14301        35.24503        -0.28524
C         25.37847        37.37829        -0.15274
C         24.15428        38.09779        -0.19183
C         25.39362        40.24277        -0.01981
C         24.15882        39.54186        -0.10920
C         25.40086        41.66822         0.10798
C         24.17713        42.38988         0.13008
C         25.42319        44.51594         0.45772
C         24.18461        43.83102         0.28725
C         25.42670        45.91830         0.65755
C         24.21800        46.63751         0.68712
C         25.40468        48.78134         0.85936
C         24.23778        48.07424         0.87424
C         27.95957        22.95872        -0.72497
C         27.89426        24.40640        -1.00292
C         26.60832        25.13818        -0.85394
C         27.91530        27.32424        -0.42461
C         26.65572        26.53976        -0.39692
C         27.87478        28.74680        -0.28103
C         26.60885        29.46184        -0.26756
C         27.83372        31.59081        -0.02219
C         26.61392        30.90825        -0.17457
C         27.80145        33.04261         0.24037
C         26.57626        33.80657        -0.03698
C         27.86187        35.94015        -0.04006
C         26.60554        35.21552        -0.05494
C         27.85569        37.37171        -0.13799
C         26.62425        38.09200        -0.11650
C         27.86917        40.22356        -0.04709
C         26.62861        39.51422        -0.06568
C         27.87827        41.64448         0.12476
C         26.65148        42.37007         0.22467
C         27.91564        44.45596         0.54334
C         26.66677        43.77631         0.41774
C         27.94963        45.91989         0.63352
C         26.69518        46.64401         1.04499
C         27.84347        48.80823         0.39776
C         26.67920        48.12181         0.69880
C         27.90980        50.23921         0.29656
C         30.40398        23.05127        -0.45344
C         29.14162        22.33097        -0.51766
C         30.39841        24.44390        -0.53039
C         29.17216        25.19065        -0.84365
C         30.36845        27.36534        -0.43100
C         29.13648        26.65111        -0.55959
C         30.34578        28.78455        -0.26888
C         29.09650        29.48036        -0.21179
C         30.33196        31.63794        -0.04735
C         29.08348        30.90811        -0.06125
C         30.35905        33.05458         0.00150
C         29.12237        33.80589         0.25598
C         30.32964        35.93899        -0.17631
C         29.09128        35.25277         0.00496
C         30.30115        37.34864        -0.36068
C         29.09145        38.07918        -0.26655
C         30.31830        40.25764        -0.24042
C         29.09588        39.52327        -0.21755
C         30.35868        41.63323         0.05147
C         29.11795        42.33863         0.22864
C         30.39446        44.46528         0.76390
C         29.11371        43.73698         0.44218
C         30.37662        45.86089         0.10111
C         29.09422        46.60834         0.37595
C         30.38311        48.81089         0.16333
C         29.07809        48.05858        -0.04831
C         30.36722        50.21802         0.10808
C         29.09693        50.89976         0.12876
C         32.99621        20.31091        -0.26345
C         31.83940        20.97701        -0.58612
C         32.80545        23.07828         0.27814
C         31.63769        22.33713        -0.23180
C         32.81704        24.57085         0.08934
C         31.68879        25.19471        -0.69053
C         32.82630        27.37347        -0.28497
C         31.61384        26.67861        -0.42324
C         32.82052        28.80023        -0.24672
C         31.58022        29.50243        -0.22422
C         32.80570        31.64737        -0.19018
C         31.57055        30.92996        -0.16416
C         32.80032        33.06009        -0.14543
C         31.57960        33.77884        -0.10864
C         32.81909        35.93300        -0.33072
C         31.57189        35.22331        -0.17886
C         32.82519        37.34690        -0.54334
C         31.54789        38.04051        -0.69837
C         32.84573        40.25277        -0.44338
C         31.55879        39.58061        -0.63385
C         32.84793        41.65453        -0.16879
C         31.62235        42.34425         0.07363
C         32.86788        44.44533         0.28943
C         31.65785        43.73748         0.34443
C         32.90124        45.91451         0.50325
C         31.60348        46.66695         0.48216
C         32.85654        48.80536         0.19338
C         31.61321        48.12207         0.23203
C         32.85624        50.23075         0.10101
C         31.61419        50.94119         0.08620
C         32.84827        53.04037        -0.06194
C         31.64572        52.35336         0.01050
C         35.38745        18.83324         0.73023
C         35.35828        20.22687         0.61147
C         34.02208        20.92028         0.66865
C         35.30392        23.09910         0.36405
C         34.10363        22.40069         0.42524
C         35.31762        24.54310         0.17221
C         34.11480        25.26302         0.01597
C         35.31783        27.37625        -0.19994
C         34.09194        26.66095        -0.18343
C         35.30966        28.80247        -0.31894
C         34.05988        29.51880        -0.28115
C         35.28403        31.65318        -0.50129
C         34.05247        30.92787        -0.28769
C         35.27098        33.04473        -0.49878
C         34.09789        33.78957         0.07204
C         35.26707        35.94451        -0.53719
C         34.05185        35.23953        -0.33335
C         35.26987        37.36955        -0.60055
C         34.03214        38.07966        -0.60733
C         35.30312        40.22357        -0.54823
C         34.04380        39.52722        -0.57046
C         35.32060        41.66171        -0.37095
C         34.08982        42.36052        -0.15359
C         35.33628        44.49583         0.03341
C         34.09824        43.77054         0.04523
C         35.34518        45.93359         0.09512
C         34.13928        46.66475         0.22921
C         35.34610        48.79214        -0.01380
C         34.11101        48.07678         0.15714
C         35.34547        50.23132        -0.02688
C         34.09398        50.95051         0.02423
C         35.36353        53.13173        -0.26344
C         34.07780        52.36404        -0.04707
C         35.37345        54.54911         0.23400
C         37.82364        18.82204         0.69206
C         36.59188        18.13925         0.75932
C         37.81654        20.24667         0.58725
C         36.57257        20.95522         0.53851
C         37.79070        23.10235         0.35609
C         36.56676        22.39089         0.43194
C         37.79050        24.53411         0.21274
C         36.55366        25.24640         0.09637
C         37.78618        27.37667        -0.17468
C         36.55060        26.66231        -0.09470
C         37.77855        28.79654        -0.37004
C         36.53357        29.50341        -0.43870
C         37.75743        31.60603        -0.76835
C         36.53397        30.92603        -0.62497
C         37.77058        33.03711        -1.06740
C         36.43811        33.79756        -0.92424
C         37.73226        35.92757        -0.78810
C         36.50152        35.24715        -0.70737
C         37.74248        37.34927        -0.71568
C         36.51074        38.06712        -0.65778
C         37.78749        40.19318        -0.73370
C         36.50029        39.49472        -0.64946
C         37.80981        41.69438        -0.57124
C         36.53440        42.38100        -0.31440
C         37.81739        44.49874        -0.06230
C         36.55673        43.78777        -0.10240
C         37.82367        45.91112        -0.02624
C         36.57785        46.64200        -0.00944
C         37.84470        48.74751        -0.27383
C         36.56076        48.05272        -0.08522
C         37.85453        50.26506        -0.13532
C         36.56615        50.96537         0.04232
C         37.79638        53.06502         0.47117
C         36.58789        52.36305         0.16920
C         37.79288        54.45011         0.60213
C         36.54544        55.16857         0.51945
C         40.33004        16.01490         0.92439
C         39.13227        16.68890         0.82622
C         40.30072        18.84007         0.76763
C         39.08321        18.10876         0.75737
C         40.28891        20.26994         0.65875
C         39.05124        20.97094         0.55074
C         40.27149        23.11230         0.34444
C         39.03960        22.39507         0.42079
C         40.24551        24.52476         0.18043
C         39.01804        25.24441         0.13718
C         40.24125        27.40424        -0.14041
C         39.01674        26.67370        -0.06801
C         40.24158        28.81588        -0.31496
C         39.00363        29.51114        -0.44761
C         40.23531        31.63882        -0.77806
C         39.01072        30.92913        -0.65335
C         40.24639        33.07807        -0.88477
C         39.01560        33.80140        -0.90901
C         40.23707        35.92047        -0.78543
C         38.99332        35.20390        -0.85187
C         40.25629        37.32554        -0.63785
C         39.00140        38.05051        -0.60830
C         40.24032        40.10762         0.03387
C         39.01577        39.42909        -0.49835
C         40.23856        41.60821        -0.08070
C         39.08001        42.34235        -0.15868
C         40.26615        44.47907         0.19440
C         39.06018        43.78375        -0.00125
C         40.29192        45.89802         0.16293
C         39.07073        46.61594         0.03587
C         40.31237        48.74499         0.13535
C         39.10155        48.03534        -0.01124
C         40.29668        50.19159         0.28895
C         39.10158        50.89813         0.27907
C         40.31271        53.03441         0.77748
C         39.01667        52.27212         0.88801
C         40.31316        54.40651         0.92590
C         39.07663        55.24388         0.68865
C         40.22156        57.06576         1.90887
C         39.05962        56.45467         1.59340
C         42.80218        16.04697         1.10552
C         41.55911        16.72555         0.97075
C         42.77904        18.86564         0.94638
C         41.54639        18.14552         0.88705
C         42.76215        20.29573         0.85768
C         41.52230        20.99025         0.68091
C         42.75710        23.10452         0.60942
C         41.52114        22.40608         0.50984
C         42.81865        24.53135         0.25176
C         41.48864        25.25732        -0.03549
C         42.68369        27.44555         0.07033
C         41.49030        26.73193         0.00080
C         42.70521        28.84976        -0.17029
C         41.47508        29.52822        -0.38552
C         42.71738        31.60404        -0.78990
C         41.48463        30.93255        -0.65646
C         42.70592        33.00409        -1.33899
C         41.46474        33.78693        -0.98013
C         42.69867        35.93869        -1.03152
C         41.47365        35.20012        -0.92717
C         42.72913        37.33304        -0.86181
C         41.49950        38.04809        -0.62434
C         42.75621        40.16626        -0.32751
C         41.52729        39.44066        -0.38624
C         42.78712        41.55470        -0.00208
C         41.51373        42.24334         0.29992
C         42.79980        44.46127         0.38893
C         41.51560        43.74466         0.45523
C         42.75667        45.86196         0.41256
C         41.53419        46.60246         0.28327
C         42.78244        48.75206         0.40842
C         41.54063        48.02556         0.29030
C         42.77580        50.18421         0.49193
C         41.54691        50.89335         0.53049
C         42.78569        53.00559         0.83712
C         41.54857        52.30204         0.72540
C         42.78321        54.41326         1.09263
C         41.54329        55.10640         1.17093
C         42.72171        57.13486         1.82270
C         41.50935        56.46281         1.59234
C         43.98494        16.74727         1.17134
C         45.24882        18.91196         1.17797
C         44.00972        18.17020         1.10009
C         45.23333        20.32965         1.14009
C         43.97901        21.01777         0.98192
C         45.17656        23.19059         1.24986
C         43.94781        22.43712         0.93322
C         45.17707        24.70842         1.11114
C         43.97421        25.32962         0.57431
C         45.21081        27.48483         0.28647
C         43.91380        26.81738         0.65730
C         45.19927        28.84851        -0.08760
C         43.94954        29.54969        -0.26154
C         45.21342        31.63093        -0.74668
C         43.95424        30.92797        -0.60876
C         45.19644        33.07240        -0.96753
C         43.99321        33.74398        -1.11560
C         45.24857        35.95882        -1.29025
C         43.93945        35.19736        -1.33765
C         45.21157        37.38869        -0.94941
C         43.98147        38.06789        -0.81962
C         45.22916        40.18575        -0.45181
C         43.99243        39.47171        -0.54620
C         45.24172        41.59365        -0.16442
C         44.00748        42.28097         0.06214
C         45.27146        44.39390         0.34201
C         44.02460        43.71298         0.31288
C         45.30136        45.83551         0.65721
C         43.99207        46.60457         0.67442
C         45.25063        48.75065         0.47829
C         44.00860        48.06320         0.49471
C         45.25380        50.17414         0.50995
C         44.01631        50.88737         0.59120
C         45.25949        53.01593         0.86935
C         44.01948        52.30136         0.75555
C         45.26149        54.41295         1.13620
C         44.00581        55.12227         1.29036
C         43.94199        56.48992         1.63695
C         47.68536        18.95393         1.34400
C         46.50540        18.25037         1.28548
C         47.70397        20.37643         1.30277
C         46.46715        21.06853         1.20113
C         47.66534        23.24261         1.17802
C         46.46990        22.49856         1.19423
C         47.66796        24.69335         1.03410
C         46.45588        25.41498         0.92401
C         47.65597        27.50619         0.32476
C         46.42845        26.80408         0.52074
C         47.65456        28.82149        -0.13782
C         46.43148        29.52920        -0.31789
C         47.69964        31.65268        -0.69426
C         46.42922        30.93992        -0.61549
C         47.69663        33.07360        -0.83200
C         46.45974        33.79833        -0.96044
C         47.71338        35.93481        -1.04772
C         46.48616        35.19420        -1.06680
C         47.66902        37.34789        -1.00344
C         46.44629        38.07639        -0.82831
C         47.71691        40.19303        -0.52203
C         46.45842        39.48798        -0.62903
C         47.72158        41.60802        -0.24702
C         46.49470        42.29930        -0.09282
C         47.75341        44.43253         0.21115
C         46.49780        43.71782         0.14092
C         47.74567        45.89234         0.29637
C         46.53351        46.60451         0.40820
C         47.70759        48.75747         0.17784
C         46.49821        48.02602         0.38337
C         47.71028        50.20027         0.26191
C         46.48842        50.89456         0.49551
C         47.72933        53.01701         0.78555
C         46.49412        52.31142         0.70666
C         47.70039        54.40625         1.06774
C         46.50763        55.07933         1.24226
C         50.18137        20.46784         1.53104
C         48.93248        21.12468         1.36699
C         50.14682        23.27551         1.24895
C         48.91743        22.54607         1.25680
C         50.13932        24.70439         1.05309
C         48.91294        25.38324         0.91961
C         50.18798        27.52002         0.41724
C         48.90719        26.89273         0.90374
C         50.19601        28.83050        -0.05603
C         48.93617        29.44768        -0.62702
C         50.16254        31.63990        -0.72999
C         48.92446        30.95613        -0.60772
C         50.14751        33.04355        -0.91021
C         48.93323        33.77529        -0.91735
C         50.19166        35.90808        -1.10857
C         48.95888        35.21487        -1.05263
C         50.21755        37.36485        -1.28105
C         48.89481        38.12469        -1.17477
C         50.21889        40.11993        -0.28685
C         48.91748        39.52306        -0.74645
C         50.20286        41.62304        -0.26913
C         48.98724        42.30713        -0.15045
C         50.24695        44.43345         0.28659
C         48.96005        43.73152         0.09575
C         50.24231        45.94898         0.29670
C         48.94834        46.63878         0.17471
C         50.17186        48.74574        -0.29564
C         48.92194        48.03435         0.03755
C         50.16968        50.27784        -0.20989
C         48.92566        50.93916         0.21231
C         50.23251        52.97368         0.59790
C         48.96512        52.31310         0.53913
C         51.35784        21.17733         1.58569
C         52.61418        23.32634         1.46256
C         51.37463        22.59078         1.43917
C         52.61659        24.72588         1.18250
C         51.38692        25.41992         0.97837
C         52.64900        27.48967         0.46330
C         51.40897        26.81424         0.64258
C         52.66319        28.86525         0.06146
C         51.42839        29.53374        -0.21611
C         52.66307        31.59766        -0.68005
C         51.43204        30.92185        -0.58847
C         52.71442        33.00278        -1.11346
C         51.39689        33.75738        -1.20616
C         52.66871        35.90458        -1.13646
C         51.43279        35.21963        -1.09494
C         52.67180        37.33809        -1.16402
C         51.48895        38.08564        -1.09293
C         52.67079        40.23302        -0.88214
C         51.47711        39.50285        -0.88106
C         52.73445        41.62085        -0.52528
C         51.52030        42.27103         0.09377
C         52.69580        44.48059        -0.17027
C         51.51492        43.76446        -0.04109
C         52.69547        45.93419        -0.16305
C         51.49082        46.65605        -0.03211
C         52.67166        48.79644        -0.31603
C         51.46614        48.05740        -0.20315
C         52.66701        50.23702        -0.25322
C         51.45946        50.95596        -0.03580
C         51.42318        52.31694         0.35869
C         55.03802        23.36701         1.70968
C         53.84318        22.68144         1.74530
C         55.08784        24.74107         1.35795
C         53.86379        25.42722         1.09928
C         55.11846        27.49479         0.60218
C         53.87938        26.80718         0.72665
C         55.14408        28.86567         0.18024
C         53.90237        29.55051        -0.08281
C         55.13453        31.65396        -0.54991
C         53.90808        30.93711        -0.43759
C         55.16432        33.06554        -0.72291
C         53.94854        33.78413        -0.93178
C         55.17501        35.91319        -1.00453
C         53.93018        35.18911        -1.05887
C         55.20446        37.32973        -1.14934
C         53.93812        38.03876        -1.37770
C         55.19972        40.24062        -1.04704
C         53.92021        39.56683        -1.29253
C         55.18548        41.65351        -0.88733
C         53.92386        42.34527        -0.64302
C         55.13213        44.50994        -0.56387
C         53.94790        43.78531        -0.43764
C         55.14284        45.94355        -0.45414
C         53.91263        46.65595        -0.34060
C         55.14920        48.79881        -0.43471
C         53.91467        48.08577        -0.35834
C         55.10710        50.22622        -0.42969
C         53.92304        50.91161        -0.32206
C         57.58577        24.78237         1.48447
C         56.34131        25.43513         1.24196
C         57.58551        27.49623         0.70658
C         56.34594        26.80670         0.85365
C         57.60141        28.86657         0.30007
C         56.37501        29.52743         0.01216
C         57.65599        31.67098        -0.32891
C         56.41820        30.87470        -0.65894
C         57.64617        33.08303        -0.48070
C         56.40606        33.78816        -0.69707
C         57.64391        35.93305        -0.80495
C         56.40519        35.20199        -0.83257
C         57.64953        37.35535        -0.94582
C         56.40827        38.06156        -1.09440
C         57.64537        40.22639        -1.00534
C         56.40711        39.51259        -1.08212
C         57.64035        41.65678        -0.96872
C         56.40230        42.35367        -0.91239
C         57.66803        44.49980        -0.65658
C         56.38416        43.84491        -1.09097
C         57.62647        45.91600        -0.30697
C         56.36564        46.66691        -0.44999
C         57.65520        48.77181        -0.60732
C         56.38767        48.07828        -0.46246
C         58.78190        25.44285         1.33718
C         60.03715        27.49634         0.75902
C         58.81307        26.81081         0.93943
C         60.04790        28.83688         0.40412
C         58.85055        29.55170         0.19388
C         60.05200        31.74068         0.08719
C         58.85593        30.99202        -0.04128
C         60.06008        33.10622        -0.10906
C         58.86757        33.80942        -0.39824
C         60.07989        35.97302        -0.62244
C         58.87192        35.24080        -0.60874
C         60.08440        37.34668        -0.78429
C         58.88115        38.06956        -0.92564
C         60.08028        40.25659        -1.03722
C         58.88421        39.51959        -1.00398
C         60.07627        41.65072        -1.01247
C         58.88112        42.37760        -0.94900
C         60.11400        44.58130        -0.78341
C         58.87408        43.82919        -0.76080
C         60.15050        45.93812        -0.71226
C         58.95875        46.70061        -0.34233
C         58.85453        48.13815        -0.61913
O         50.04545        49.57329        -1.49867
O         49.53171        37.85849        -2.48834
O         37.89494        41.10175        -1.91682
O         52.06938        33.24419        -2.41544
O         37.91576        49.61363        -1.45726
O         42.30911        24.75014        -1.14010
O         32.23428        46.34277         1.76762
O         28.44994        33.41147         1.50738
O         58.35320        46.27052         0.91652
O         36.97429        33.40412        -2.23691
O         50.32538        45.18562         1.56240
O         25.86409        26.71960         0.83735
O         31.45318        38.86421        -1.90952
O         28.64273        24.84242        -2.20269
O         53.89867        38.87995        -2.58587
O         41.44996        42.85386         1.64477
O         44.59717        35.64239        -2.57767
O         44.65330        46.18107         1.92944
O         45.02404        24.05440         2.44630
O         32.46524        24.02831         1.38260
O         50.29064        39.70852         1.14600
H         50.86609        40.38520         1.59279
O         35.48756        53.24640        -1.73706
H         36.33576        53.70519        -1.92053
O         51.67676        42.02286         1.56829
H         51.16586        42.72360         2.03215
O         38.82693        52.04183         2.33630
H         39.63136        51.58918         2.66911
O         26.71423        46.61042         2.51826
H         25.87935        47.02185         2.82807
O         23.62903        29.18545         1.15863
H         23.88002        28.26016         1.37044
O         56.32948        44.06149        -2.55747
H         55.55812        43.55925        -2.89790
O         42.61387        32.84825        -2.80860
H         43.48115        32.51928        -3.12796
O         43.75242        27.08089         2.12303
H         44.39878        26.51203         2.59695
O         30.37702        44.57785         2.20370
H         31.14329        45.14432         2.47019
O         56.54178        30.56461        -2.10991
H         56.52426        31.42039        -2.59016
O         40.16168        39.88751         1.50610
H         40.78953        40.51517         1.92912
O         48.85539        27.27402         2.33811
H         48.09094        26.80373         2.73533
O         48.97998        29.09035        -2.06006
H         49.73823        29.56837        -2.45971
O         39.23808        55.78407        -0.67660
H         40.06370        56.31461        -0.68159
O         32.05447        25.04354        -2.10435
H         31.26623        25.27688        -2.64104
O         30.48547        45.67482        -1.34568
H         29.75765        45.07739        -1.62349
O         34.31157        33.80274         1.54435
H         33.49644        34.16612         1.95234
O         33.52050        20.73085         2.04066
H         32.79416        21.37588         2.17975
O         28.94786        47.99015        -1.51734
H         29.66394        47.38819        -1.83488
H         22.24615        27.03642        -1.98772
H         22.17045        29.42241        -1.46457
H         21.97258        31.14973        -0.41386
H         21.96015        33.59224        -0.45932
H         21.97370        35.47648        -0.45111
H         21.98111        37.89622        -0.35004
H         21.98623        39.77980        -0.17693
H         22.00222        42.19374         0.01685
H         22.01505        44.08018         0.17220
H         22.05188        46.51604         0.50664
H         25.37254        23.48911        -1.43254
H         23.30136        24.80976        -1.65548
H         25.35995        49.87907         0.89305
H         23.27522        48.60110         0.94781
H         27.01934        22.39272        -0.65354
H         26.99143        50.83364         0.40165
H         29.15248        21.24970        -0.31789
H         29.07473        51.99623         0.07482
H         33.14187        19.28078        -0.62083
H         31.06389        20.45780        -1.16957
H         32.82147        54.13440        -0.15148
H         30.71251        52.93028        -0.01314
H         34.44411        18.27788         0.82396
H         34.44743        55.14005         0.20345
H         36.56462        17.04677         0.86065
H         36.54525        56.24530         0.74288
H         40.34365        14.91681         0.97803
H         38.20282        16.10522         0.80058
H         40.22141        58.01107         2.47278
H         38.10185        56.91387         1.87741
H         42.80683        14.94909         1.16634
H         42.70440        58.18300         2.15457
H         44.92175        16.18650         1.28619
H         44.86541        57.05896         1.80873
H         48.62529        18.39187         1.41754
H         46.54917        17.15396         1.31387
H         48.63732        54.97331         1.14357
H         46.53841        56.15695         1.45105
H         50.22273        19.37554         1.62832
H         50.27555        54.03375         0.87960
H         52.29567        20.62398         1.72116
H         52.36207        52.87448         0.47915
H         55.96135        22.82033         1.93950
H         53.86204        21.61539         2.00496
H         56.03930        50.80256        -0.48977
H         53.94740        52.00960        -0.30995
H         57.60241        23.72823         1.79031
H         57.64106        49.85404        -0.79470
H         59.73060        24.91858         1.52162
H         60.98375        26.96015         0.91713
H         61.01767        29.33849         0.28796
H         60.99611        31.23993         0.33702
H         61.01305        33.64242        -0.01660
H         61.04216        35.45968        -0.50128
H         61.04910        37.86999        -0.77793
H         61.05008        39.74327        -1.06758
H         61.04465        42.16739        -1.01271
H         61.04635        44.04947        -1.01623
H         61.08095        46.48252        -0.93201
H         59.77343        48.69499        -0.85631
