         341
 CSIRO Nanostructure Databank - Neutral Graphene Oxide Data Set
C          1.78433         2.57758        -2.58258
C          1.65998         3.87362        -2.07771
C          2.95019         1.84794        -2.37157
C          2.70728         4.46231        -1.33606
C          1.38372         6.51698        -0.79721
C          1.30807         7.84933        -0.40475
C          2.60897         5.83230        -0.81949
C          2.46817         8.57867        -0.07913
C          1.21103        10.74348         0.07998
C          1.18379        12.11172         0.21612
C          2.43132        10.01094         0.15104
C          2.39419        12.86157         0.25932
C          1.18208        15.08088         0.37896
C          1.17503        16.43964         0.43438
C          2.39806        14.30110         0.23387
C          2.38241        17.22134         0.13060
C          2.49068        18.65899         0.44310
C          4.02273         2.41873        -1.64800
C          3.89771         3.73685        -1.13985
C          5.24018         1.68656        -1.44740
C          4.96529         4.29289        -0.22999
C          3.78187         6.51025        -0.37532
C          3.72331         7.90115        -0.06815
C          5.02008         5.80214        -0.21030
C          4.91502         8.59031         0.33683
C          3.63393        10.71026         0.39324
C          3.62831        12.14380         0.24595
C          4.84267         9.96136         0.70657
C          4.85154        12.87236         0.11315
C          3.63328        14.97460         0.24558
C          3.68567        16.43438         0.05992
C          4.85407        14.25695         0.26081
C          4.95834        17.14947         0.26357
C          3.69100        19.28771         0.43861
C          4.95644        18.57686         0.31636
C          6.36324         2.27590        -0.87296
C          6.31285         3.64801        -0.40754
C          7.59580         1.56612        -0.78066
C          7.45272         4.29913         0.00938
C          6.17215         6.45891         0.20738
C          6.14553         7.87811         0.47874
C          7.42093         5.71293         0.38166
C          7.32099         8.56629         0.87888
C          5.98810        10.53636         1.33689
C          6.13166        12.25362        -0.34216
C          7.27344         9.93183         1.23778
C          7.39031        12.83400         0.18660
C          6.12727        14.95636         0.65701
C          6.15806        16.43396         0.36529
C          7.40760        14.20235         0.36766
C          7.39278        17.11576         0.43669
C          6.17380        19.25481         0.40191
C          7.40816        18.55100         0.43002
C          8.74130         2.16664        -0.27106
C          8.71045         3.57313         0.13184
C          9.95625         1.43449        -0.16401
C          9.81805         4.16594         0.67917
C          8.55209         6.33672         0.83752
C          8.48477         7.73845         1.38227
C          9.79977         5.57832         1.21144
C          9.83427         8.47866         1.35116
C          8.52718        10.80072         1.42777
C          8.62596        11.95396         0.27928
C          9.84333         9.98105         1.41777
C          9.87755        12.77995         0.51005
C          8.63873        14.94845         0.45291
C          8.63016        16.37747         0.48595
C          9.86959        14.23404         0.45111
C          9.85540        17.09375         0.50599
C          8.64212        19.23756         0.50402
C          9.86848        18.53791         0.53517
C         11.11643         2.01805         0.33194
C         11.07105         3.38788         0.96975
C         12.34716         1.33536         0.34598
C         12.30665         4.19609         0.62848
C         11.05912         6.35547         0.83358
C         11.06326         7.74124         0.89807
C         12.27229         5.61679         0.55899
C         12.26487         8.48309         0.56044
C         11.18087        10.71776         1.20822
C         11.07670        12.10797         0.63945
C         12.29432         9.90251         0.57470
C         12.33382        12.78395         0.49703
C         11.07588        14.95944         0.51044
C         11.08571        16.37941         0.50057
C         12.37554        14.25302         0.77187
C         12.32620        17.09928         0.43961
C         11.10395        19.22350         0.58467
C         12.33871        18.53210         0.50628
C         13.55999         2.03127         0.53552
C         13.52450         3.50003         0.53520
C         14.78936         1.35199         0.51757
C         14.72417         4.21487         0.34154
C         13.47101         6.32563         0.25378
C         13.45233         7.76841         0.20167
C         14.69635         5.60111         0.11486
C         14.63284         8.48503        -0.13765
C         13.46421        10.60181         0.19999
C         13.49896        12.06606         0.23382
C         14.63321         9.88449        -0.16641
C         14.71252        12.78346        -0.07276
C         13.55633        14.95763         0.17629
C         13.54524        16.39984         0.18051
C         14.68721        14.22423        -0.13784
C         14.72976        17.12948        -0.02406
C         13.57801        19.22489         0.46710
C         14.78903        18.54259         0.20859
C         16.03066         2.03043         0.46867
C         16.05881         3.54003         0.54768
C         17.25158         1.37796         0.40893
C         17.12430         4.11696        -0.37394
C         15.94290         6.29246        -0.16728
C         15.88529         7.74439        -0.56579
C         17.14485         5.62688        -0.27004
C         17.14332         8.45059        -0.10703
C         15.87900        10.61385        -0.63857
C         15.91069        12.09912        -0.37415
C         17.13753         9.94190        -0.12224
C         17.13847        12.77761        -0.55856
C         15.88684        14.91919        -0.62844
C         15.92094        16.44800        -0.52712
C         17.17186        14.21049        -0.63363
C         17.22286        17.10690        -0.43832
C         16.04821        19.20252         0.12871
C         17.26020        18.51024        -0.14203
C         18.48660         2.10357         0.19365
C         18.45479         3.45355        -0.14559
C         19.74705         1.42580         0.28113
C         19.66620         4.14423        -0.71379
C         18.41469         6.33116        -0.37846
C         18.42909         7.74163        -0.25631
C         19.64660         5.64159        -0.48671
C         19.63674         8.47039        -0.28040
C         18.42325        10.64100        -0.25558
C         18.40922        12.06991        -0.49448
C         19.61687         9.92179        -0.25874
C         19.59767        12.76615        -0.56589
C         18.35760        14.92801        -0.78512
C         18.40128        16.36588        -0.67430
C         19.60724        14.15856        -1.13198
C         19.65840        17.05312        -0.71392
C         18.51434        19.16838        -0.17138
C         19.71046        18.47580        -0.47830
C         20.95684         2.09960         0.09202
C         20.96917         3.49193        -0.31074
C         22.20169         1.44661         0.32734
C         22.15986         4.17800        -0.43406
C         20.85571         6.35858        -0.49964
C         20.87469         7.77437        -0.40521
C         22.12623         5.63391        -0.74403
C         22.12764         8.50597        -0.34017
C         20.87431        10.62690        -0.22440
C         20.85240        12.13036        -0.03667
C         22.06706         9.94144        -0.16417
C         22.12709        12.80116        -0.49854
C         20.88882        14.92308        -0.93845
C         20.86758        16.32263        -0.93503
C         22.12451        14.19339        -0.85938
C         22.10480        17.08112        -1.20061
C         20.95516        19.16144        -0.50190
C         22.17227        18.52736        -0.86968
C         23.41137         2.12731         0.22983
C         23.42354         3.52823        -0.14645
C         24.65161         1.46073         0.50038
C         24.63692         4.21419        -0.19776
C         23.41824         6.41596        -0.75510
C         23.36775         7.85704        -0.39656
C         24.74136         5.64296        -0.72275
C         24.59337         8.60397        -0.13370
C         23.29628        10.70897         0.24850
C         23.31840        12.12457        -0.29087
C         24.58720         9.95818         0.04977
C         24.56874        12.80935        -0.36709
C         23.35940        14.87349        -0.95286
C         23.41234        16.30522        -1.28035
C         24.57374        14.20538        -0.66495
C         24.66927        17.05112        -1.09137
C         23.38984        19.18893        -0.91822
C         24.65263        18.52555        -1.43348
C         25.85630         2.13655         0.47451
C         25.86344         3.55195         0.15356
C         27.11211         1.45321         0.74055
C         27.08062         4.24927         0.18516
C         25.83928         6.37351         0.02057
C         25.83501         7.84252         0.18550
C         27.14077         5.66312         0.01029
C         27.17715         8.55267         0.43086
C         25.84749        10.72531         0.39270
C         25.79881        12.13344        -0.14744
C         27.13339        10.01007         0.03254
C         26.98939        12.84207        -0.24035
C         25.79109        14.94510        -0.56004
C         25.81328        16.38917        -0.72314
C         26.97554        14.25184        -0.31829
C         27.08996        17.09387        -0.59781
C         25.91833        19.22416        -1.00590
C         27.07454        18.55686        -0.70382
C         28.31112         2.10699         0.76837
C         28.34879         3.60859         0.67165
C         29.59122         1.46611         1.03828
C         29.54049         4.11179        -0.11742
C         28.33471         6.35644        -0.13143
C         28.39077         7.80495        -0.13289
C         29.55804         5.57824        -0.43690
C         29.55169         8.47671        -0.41657
C         28.26069        10.67194        -0.30566
C         28.32589        12.17454        -0.41737
C         29.58064         9.98453        -0.56023
C         29.35301        12.71704         0.61626
C         28.19999        14.99413         0.03482
C         28.25290        16.42330        -0.32133
C         29.40707        14.25719         0.52178
C         29.59737        17.10071        -0.37624
C         28.29997        19.24920        -0.35374
C         29.47925        18.58548        -0.09532
C         30.77491         2.08650         0.79880
C         30.83435         3.37293         0.06127
C         32.07919         4.16842        -0.01496
C         30.87549         6.27996        -0.59155
C         30.91221         7.81228        -0.65352
C         32.09841         5.48912        -0.30019
C         31.91199         8.47628         0.26407
C         30.72284        10.64163         0.22091
C         30.69646        12.02094         0.48249
C         31.84441         9.80427         0.55564
C         31.86158        12.79060         0.73397
C         30.71246        14.96585         0.52414
C         30.72078        16.39290         0.37846
C         31.86695        14.18938         0.73974
C         31.80599        17.16752         0.77533
C         30.66123        19.28007         0.31887
C         31.78715        18.58597         0.70741
O         30.02779         3.28460        -1.18741
O          6.16112        11.40913        -1.24894
O         16.98236         9.20611         1.13623
O         27.37592         8.56817         1.88038
O          2.98773        16.86673        -1.16122
O         30.11907         5.82110        -1.77393
O          9.99701         9.18405         2.64981
O         22.72766         6.07454        -2.01798
O         28.48988        14.85137         1.51903
O         22.68476        16.71080        -2.50601
O          8.81503        11.23639        -0.95510
H          7.91332        11.09494        -1.35278
O          9.82295         5.47194         2.68229
H          9.16084         6.12610         3.03443
O         29.88849        10.24368        -1.97329
H         30.64247         9.64141        -2.22093
O          8.46148        11.50205         2.69011
H          8.89187        10.93515         3.36766
O         15.94134        10.48470        -2.09027
H         15.18468        10.97443        -2.47431
O         12.56821        14.33380         2.24896
H         12.17648        13.51928         2.63679
O         11.12266         3.13074         2.41065
H         10.72712         3.92022         2.85766
O         31.37187         8.09588        -2.01907
H         30.92122         7.43289        -2.59436
O         28.57632         4.11719         2.03221
H         27.81014         3.85083         2.58330
O          6.07554        14.90063         2.14191
H          6.85035        15.40237         2.47627
O          4.54417         3.90817         1.13552
H          3.66530         4.31616         1.28988
O         19.54287         3.96672        -2.18330
H         19.76598         3.03189        -2.38195
O         19.54305        13.96226        -2.60457
H         19.45379        14.84938        -3.01489
O         25.49586         6.92243         1.32953
H         26.90241         7.77190         2.22819
O         28.77306        12.60930        -1.72338
H         29.29633        11.87264        -2.12973
O         15.68141        15.75132        -1.81102
O         16.47134         3.88416         1.90300
H         15.78851         3.54807         2.52056
O         23.15913        10.85904         1.71691
H         24.07706        11.00874         2.07185
O         30.02521        17.00084        -1.78491
H         29.37688        17.50224        -2.32464
O         28.89130        12.36204         1.93418
H         28.41017        13.14893         2.28785
O          8.13641         7.53848         2.80557
H          8.53351         8.30243         3.29167
O         25.86238        10.87506         1.86199
H         26.40554        10.12174         2.21461
O         15.92197         7.74471        -2.02412
H         15.18599         7.18397        -2.34631
O         24.59677        18.63279        -2.89812
H         23.85030        18.04809        -3.18228
O         11.68569        11.02034         2.55903
H         11.63174        10.17856         3.06856
O         16.75607         3.81098        -1.75163
H         17.54387         4.03194        -2.30507
O         20.81893        12.36357         1.41625
H         21.59531        11.87311         1.79519
O         25.22502         5.54634        -2.08482
H         24.42734         5.44607        -2.65680
O          5.83690        11.64169         2.10593
H          6.70746        11.87783         2.51645
H          0.95559         2.13501        -3.15276
H          0.73525         4.43386        -2.27044
H          3.04777         0.82727        -2.76804
H          0.45896         6.00044        -1.08794
H          0.32382         8.33512        -0.39420
H          0.26031        10.20927        -0.04743
H          0.21500        12.62851         0.21302
H          0.23847        14.54743         0.56100
H          0.24987        16.97735         0.69100
H          1.56842        19.22198         0.65173
H          5.30357         0.65360        -1.82120
H          3.73900        20.37172         0.62279
H          7.63208         0.51536        -1.10556
H          6.18394        20.35353         0.45769
H          9.98481         0.39850        -0.53611
H          8.64680        20.33738         0.51958
H         12.37761         0.26313         0.09686
H         11.10457        20.32287         0.62415
H         14.78491         0.25159         0.47324
H         13.58615        20.31860         0.58401
H         17.29496         0.27968         0.46935
H         16.08907        20.28765         0.30535
H         19.76276         0.36476         0.57092
H         18.55969        20.24796         0.03353
H         22.19721         0.38658         0.62216
H         20.97035        20.23406        -0.25788
H         24.62899         0.38876         0.74796
H         23.41547        20.27036        -0.71207
H         27.07872         0.36169         0.88315
H         25.92501        20.32504        -1.04072
H         29.58186         0.45337         1.47016
H         28.26637        20.34624        -0.25970
H         31.72218         1.59043         1.05963
H         33.02519         3.65639         0.22160
H         33.06389         6.01703        -0.31285
H         32.77146         7.89045         0.62179
H         32.64637        10.24249         1.16995
H         32.83452        12.27907         0.78546
H         32.84229        14.69260         0.81268
H         32.67984        16.68730         1.23938
H         30.64073        20.37864         0.37529
H         32.67412        19.13852         1.04853
