         429
 CSIRO Nanostructure Databank - Neutral Graphene Oxide Data Set
C          1.24236         3.31294         0.38628
C          0.05317         3.97556         0.54374
C          1.09791         6.16921         0.20898
C         -0.00968         5.40504         0.50018
C          1.08134         7.61638         0.27541
C         -0.08407         8.36725         0.29639
C          1.08412        10.53494         0.22371
C         -0.08274         9.78525         0.24770
C          1.11452        11.97287         0.02489
C         -0.08113        12.70842        -0.14333
C          1.13648        14.81948        -0.19383
C         -0.07130        14.08712        -0.25482
C          1.14425        16.27129        -0.23517
C         -0.06119        17.01918        -0.29799
C          1.13586        19.14078        -0.14872
C         -0.06558        18.40147        -0.25829
C          1.14078        20.59049        -0.05641
C         -0.04369        21.35628        -0.14661
C          1.14177        23.48202         0.12686
C         -0.01392        22.77006        -0.10660
C          1.18886        24.98114         0.33253
C         -0.05510        25.72941        -0.04548
C          1.24307        27.79581        -0.20569
C         -0.00768        27.06921        -0.20707
C          1.25792        29.22299        -0.18611
C          0.07208        29.96747         0.06362
C          1.27482        32.06215        -0.18672
C          0.07975        31.34539         0.07054
C          1.28250        33.53247        -0.22238
C          0.07068        34.26851        -0.35282
C          1.28808        36.37015        -0.23113
C          0.07428        35.64839        -0.35288
C          1.30435        37.79550        -0.20776
C          3.67221         3.39555         0.07622
C          2.45484         4.03028         0.10229
C          3.63850         6.24690        -0.09667
C          2.34905         5.48386        -0.30551
C          3.63621         7.63263         0.09255
C          2.36911         8.31711         0.42839
C          3.62787        10.55197         0.18545
C          2.36286         9.84276         0.44251
C          3.61049        11.95949         0.09627
C          2.35365        12.67644         0.03255
C          3.60541        14.81894        -0.00602
C          2.35944        14.10056        -0.06227
C          3.61068        16.24262        -0.07530
C          2.37297        16.97380        -0.17095
C          3.58974        19.13172        -0.05947
C          2.36913        18.41659        -0.12281
C          3.58892        20.54181         0.03060
C          2.37994        21.27200         0.09300
C          3.60290        23.47145        -0.13263
C          2.41302        22.74466         0.44551
C          3.62784        24.86413        -0.34095
C          2.43979        25.64830        -0.22272
C          3.68621        27.78977        -0.59705
C          2.46629        27.07163        -0.33222
C          3.71100        29.19235        -0.63463
C          2.48414        29.92904        -0.39144
C          3.70941        32.12980        -0.73994
C          2.46739        31.34368        -0.39559
C          3.76617        33.42450         0.08663
C          2.49625        34.22186        -0.12404
C          3.74159        36.36785        -0.04104
C          2.52170        35.64849        -0.12225
C          3.73725        37.78137        -0.05256
C          2.49043        38.48081        -0.10834
C          6.11315         3.43745        -0.12559
C          4.90459         4.10081        -0.16497
C          6.06755         6.28534        -0.37304
C          4.86857         5.56129        -0.26335
C          6.07243         7.69034        -0.20342
C          4.84951         8.37803         0.05190
C          6.08143        10.53615         0.09120
C          4.84509         9.82318         0.12811
C          6.07787        11.96833         0.12057
C          4.84931        12.67392         0.08457
C          6.06299        14.82702         0.22061
C          4.83760        14.11131         0.07944
C          6.02909        16.25066         0.30539
C          4.84601        16.94217         0.05485
C          6.11575        19.13878         0.14342
C          4.88262        18.40410        -0.32271
C          6.07384        20.59724         0.06853
C          4.84945        21.25343        -0.02223
C          6.14759        23.47825        -0.25679
C          4.80913        22.68589        -0.33588
C          6.08922        24.94526        -0.22491
C          4.89347        25.56788        -0.51021
C          6.23067        27.69729        -1.02510
C          4.86917        26.96878        -1.07630
C          6.23929        29.22181        -0.97538
C          4.95224        29.93153        -0.79027
C          6.20668        32.04414        -0.56257
C          4.98512        31.32285        -0.64665
C          6.18251        33.49334        -0.47210
C          5.02995        34.18903        -0.21880
C          6.14628        36.42806        -0.65867
C          5.06968        35.65734         0.13466
C          6.20030        37.86245        -0.16868
C          4.96815        38.50689         0.01108
C          8.54499         3.43900        -0.42221
C          7.35947         4.10855        -0.39131
C          8.58971         6.29914        -0.50698
C          7.31049         5.56082        -0.83018
C          8.57403         7.70148        -0.30439
C          7.32113         8.42155        -0.17617
C          8.58860        10.52227         0.38430
C          7.31164         9.80243         0.03748
C          8.53855        11.99105         0.03760
C          7.33271        12.70471         0.08720
C          8.54264        14.90060         0.30471
C          7.31800        14.14051         0.18103
C          8.54399        16.25875         0.59135
C          7.23351        16.98358         0.83558
C          8.49987        19.18999         0.75810
C          7.25097        18.45349         0.47283
C          8.55851        20.62251         0.35816
C          7.28124        21.36392         0.25503
C          8.47486        23.50638         0.72705
C          7.30375        22.74366         0.23339
C          8.48069        25.00463         0.58703
C          7.33243        25.68326        -0.07388
C          8.74168        27.67694        -0.50895
C          7.42891        26.98831        -0.49816
C          8.76424        29.23067        -0.67480
C          7.48590        29.95729        -0.67041
C          8.69516        32.09897        -0.30461
C          7.46102        31.34860        -0.50926
C          8.71182        33.47135        -0.22556
C          7.48062        34.21296        -0.57867
C          8.71713        36.40850        -0.16749
C          7.49639        35.70482        -0.62105
C          8.67176        37.82654         0.00424
C          7.41766        38.52015        -0.00976
C         11.06353         3.42222        -0.57280
C          9.78761         4.12429        -0.92190
C         11.03948         6.27711        -0.48694
C          9.79543         5.59196        -0.56971
C         11.02875         7.69275        -0.46959
C          9.81515         8.41735        -0.31224
C         11.04397        10.56165        -0.08533
C          9.83623         9.83307        -0.11087
C         11.05457        11.95843         0.03006
C          9.79899        12.68457        -0.16254
C         11.10291        14.84784         0.35665
C          9.82943        14.22867         0.01874
C         11.12953        16.25434         0.76363
C          9.79802        16.96980         0.90782
C         11.07828        19.18780         0.67466
C          9.81094        18.47029         0.92560
C         11.12119        20.59795         0.73910
C          9.84494        21.34351         0.53841
C         11.06609        23.56321         0.81162
C          9.79615        22.80082         0.84962
C         11.07230        24.91897         0.77706
C          9.81415        25.70705         0.66038
C         11.13621        27.76861         0.22070
C          9.92182        27.06846         0.10318
C         11.13617        29.21538         0.07616
C          9.98202        29.90789        -0.22084
C         11.03069        32.02743         0.61009
C         10.03536        31.40736        -0.35744
C         11.07629        33.53447         0.42827
C          9.93731        34.21863         0.06810
C         11.06761        36.40905         0.46926
C          9.90491        35.69126         0.09938
C         11.08516        37.83834         0.41844
C          9.86693        38.52858         0.23566
C         13.49875         3.37577        -0.31293
C         12.28523         4.09553        -0.43664
C         13.50492         6.26624        -0.41589
C         12.28741         5.55773        -0.45751
C         13.55626         7.66925        -0.48388
C         12.30127         8.40084        -0.63088
C         13.61596        10.50903        -0.00468
C         12.33164         9.90154        -0.40563
C         13.57538        11.88698         0.53972
C         12.28676        12.66833         0.40844
C         13.54738        14.86348         0.35062
C         12.32765        14.15271         0.34864
C         13.52211        16.29304         0.14270
C         12.36271        16.99485         0.42764
C         13.48764        19.23613        -0.18890
C         12.27590        18.45642         0.23094
C         13.50933        20.77006        -0.07416
C         12.30893        21.33477         0.65541
C         13.58896        23.51743         0.69076
C         12.33644        22.78108         1.09834
C         13.60242        24.90005         0.70485
C         12.35230        25.67680         1.06530
C         13.59261        27.78035         0.48545
C         12.35590        27.10002         0.55422
C         13.62779        29.20676         0.35846
C         12.38401        29.95454         0.30285
C         13.60644        32.14205         0.23512
C         12.36533        31.32507         0.43490
C         13.58587        33.47977         0.99260
C         12.27679        34.21851         0.96048
C         13.58682        36.48178         0.96854
C         12.27352        35.71895         0.97097
C         13.55748        37.88259         0.48253
C         12.32172        38.54732         0.42885
C         16.08122         3.35206        -0.25934
C         14.78007         4.04883        -0.14838
C         16.00436         6.24707        -0.74358
C         14.78361         5.54792        -0.22243
C         16.00664         7.71916        -0.60913
C         14.80066         8.39387        -0.42226
C         16.10034        10.44299         0.37334
C         14.79803         9.82185        -0.12072
C         16.11867        11.95479         0.30375
C         14.86910        12.63677         0.65782
C         16.09502        14.82411         0.25947
C         14.83177        14.16277         0.57087
C         16.06285        16.26038        -0.11154
C         14.76929        16.99628        -0.27997
C         16.04400        19.20481         0.14929
C         14.82591        18.53832        -0.46820
C         16.03901        20.61654         0.34807
C         14.81673        21.36965         0.38495
C         16.04517        23.48920         0.69647
C         14.81816        22.77125         0.57907
C         16.07589        24.89704         0.65849
C         14.84003        25.62261         0.60666
C         16.07681        27.74878         0.51319
C         14.83618        27.04260         0.55462
C         16.07127        29.16262         0.52589
C         14.85959        29.89730         0.44121
C         16.06179        32.04357         0.47209
C         14.88549        31.35408         0.42764
C         16.12320        33.51145         0.66573
C         14.89314        34.24846         1.08573
C         16.02664        36.37025         0.20210
C         14.95503        35.80137         1.11770
C         15.95895        37.75940        -0.10451
C         14.74850        38.49923         0.08658
C         18.52505         3.37972        -0.10232
C         17.25830         4.02539        -0.42174
C         18.59701         6.18338        -0.90853
C         17.27608         5.45481        -0.86688
C         18.61055         7.69082        -0.90381
C         17.25851         8.47960        -0.75818
C         18.53456        10.53830        -0.28922
C         17.32363         9.84047        -0.26173
C         18.55368        11.97188        -0.07976
C         17.29883        12.66974         0.16608
C         18.54471        14.85946        -0.00472
C         17.29053        14.12920         0.18248
C         18.56015        16.28136         0.00819
C         17.28560        17.00846         0.36011
C         18.49487        19.18888         0.22557
C         17.26924        18.50415         0.14922
C         18.50823        20.58918         0.47414
C         17.27817        21.27718         0.60163
C         18.61268        23.46953         0.81774
C         17.27636        22.71435         0.89734
C         18.57663        24.91313         0.53760
C         17.33356        25.61614         0.58955
C         18.57110        27.72862         0.29570
C         17.32828        27.02720         0.48626
C         18.59518        29.15103         0.27899
C         17.36070        29.86424         0.64153
C         18.56206        32.07320         0.10188
C         17.36712        31.37145         0.60699
C         18.47749        33.47421        -0.19146
C         17.29293        34.21899         0.11661
C         18.30577        36.29894        -0.73056
C         17.20103        35.63037        -0.13508
C         18.28216        37.71303        -0.90521
C         17.08988        38.41718        -0.63285
C         19.69742         4.04802        -0.02359
C         20.95380         6.28078         0.05844
C         19.82747         5.46400        -0.44077
C         20.94167         7.63903        -0.00482
C         19.80900         8.40119        -0.47545
C         20.99507        10.57928        -0.39021
C         19.78564         9.81822        -0.43134
C         20.97804        11.94861        -0.32111
C         19.75605        12.68344        -0.18324
C         20.94784        14.88285        -0.36438
C         19.75911        14.14570        -0.17076
C         20.94349        16.27072        -0.37630
C         19.75563        16.99233        -0.15349
C         20.98477        19.16184         0.35298
C         19.76637        18.50697        -0.24685
C         20.98984        20.49124         0.59124
C         19.77937        21.29345         0.53035
C         21.01668        23.43736         0.24545
C         19.82756        22.69206         0.52502
C         20.99656        24.80382         0.13353
C         19.78647        25.57544         0.24974
C         20.97554        27.75248        -0.12330
C         19.78947        27.01042         0.11944
C         20.96473        29.13068        -0.19707
C         19.77123        29.87365         0.00759
C         20.84974        32.02881        -0.68773
C         19.73963        31.33639        -0.15366
C         20.76754        33.38308        -1.00795
C         19.60358        34.12152        -0.77637
C         20.74777        36.34264        -1.23705
C         19.47908        35.53578        -1.29224
C         20.69836        37.71341        -1.33417
C         19.47140        38.40571        -1.28240
O         15.79295        33.74387         2.11445
O          9.38585        20.96078        -0.82080
O         10.51944        16.47494         2.10507
O         12.74060        12.07601         1.71605
O         12.54747        18.82273        -1.24038
O          8.96658        23.06088         2.03812
O         12.76960        33.55042         2.19079
O          5.60395        22.98876        -1.52182
O         12.32596         9.36209        -1.76354
O          2.43191         9.06331         1.69297
O          9.05242        18.97821         2.10952
O         16.44275         5.71065        -2.04575
O         14.91794        13.44856         1.86807
O         17.52158        30.65761         1.88025
O          7.70244        34.93182        -1.86694
O         14.87586         4.95002         1.10328
O          9.00829        28.32760        -1.79747
O          8.90310        25.66250         1.82610
O         18.01014        23.10056         2.10710
O          6.40319        28.45743        -2.26205
O         15.47980        16.39980        -1.43256
O         19.54089         5.64292        -1.88537
O         12.79969        36.31723         2.19757
O         17.93366         8.27316        -2.04511
O          9.83906        13.59987        -1.31179
O          4.56908        26.73216        -2.49001
H          5.07857        27.40997        -2.99729
O          7.23657         5.53332        -2.29280
H          8.00827         4.99491        -2.60191
O         17.16272        16.88991         1.82491
H         17.97883        17.25271         2.23002
O         13.56226        32.53613        -1.18826
H         12.71308        32.21211        -1.57299
O         19.82838        18.78391        -1.68936
H         19.79827        19.75724        -1.80479
O          5.43005        35.71537         1.54523
H          4.89287        35.03488         2.01012
O         16.16890        10.10702         1.80566
H         15.55797        10.70781         2.28572
O          1.33360        25.17167         1.79119
H          1.95669        24.46512         2.10769
O          7.08581        16.96842         2.29710
H          7.83216        17.50692         2.66060
O          5.01012        18.39078        -1.79419
H          4.19151        17.99156        -2.15878
O          8.68634        10.46810         1.86543
H          7.85358        10.84037         2.22759
O          2.17300         5.46654        -1.77105
H          1.41169         4.87860        -1.96296
O         12.40740        22.76032         2.57820
H         11.56073        22.39098         2.91295
O         15.05858        18.78437        -1.87805
H         14.24631        18.50060        -2.35426
O         12.38959        25.78583         2.52769
H         12.43363        24.86397         2.87816
O         15.41147        36.18143         2.43740
H         14.68226        35.96912         3.06214
O         19.17494        35.37368        -2.74437
H         19.11126        36.27786        -3.12124
O          2.60807        22.79088         1.94003
H          1.93973        22.18818         2.33323
O         10.58130        31.78579         1.96379
H         11.23533        32.22024         2.55995
O          9.69037         4.07365        -2.41453
H         10.49139         4.51567        -2.77123
O         13.33352        21.29171        -1.43411
H         12.71919        20.66674        -1.88771
O          5.70174        36.49934        -2.02836
H          6.22674        35.83326        -2.53453
O          3.59029        32.55452        -2.12767
H          3.56311        31.75153        -2.68869
O          3.83246        33.09881         1.50870
H          3.00806        32.61985         1.74280
O         10.59491        31.66791        -1.68986
H         10.00822        31.24339        -2.35249
H          1.29437         2.22250         0.52204
H         -0.86186         3.41585         0.78230
H         -0.95536         5.88771         0.78583
H         -1.05755         7.85940         0.24153
H         -1.05792        10.28290         0.15606
H         -1.04620        12.18597        -0.17674
H         -1.03022        14.60676        -0.37854
H         -1.02653        16.50048        -0.36236
H         -1.03114        18.92321        -0.29627
H         -1.01174        20.86588        -0.30902
H         -0.96440        23.29655        -0.27407
H         -1.02492        25.21398        -0.06615
H         -0.94026        27.61911        -0.39676
H         -0.86879        29.44329         0.27499
H         -0.85189        31.88574         0.28481
H         -0.88263        33.73495        -0.46645
H         -0.87055        36.20204        -0.45195
H          0.35066        38.33907        -0.27297
H          3.72414         2.31361         0.27645
H          2.49801        39.58031        -0.09764
H          6.13331         2.35372         0.06797
H          4.94152        39.58976         0.20883
H          8.58537         2.36220        -0.19595
H          7.41926        39.59325         0.23733
H         11.06045         2.32120        -0.57143
H          9.85408        39.62708         0.27652
H         13.48107         2.28009        -0.40523
H         12.30582        39.62500         0.20842
H         16.10726         2.28125        -0.00127
H         14.72885        39.55725        -0.21358
H         18.48350         2.31880         0.18734
H         17.04969        39.50299        -0.80457
H         20.60618         3.52732         0.31350
H         21.81866         5.75866         0.49298
H         21.81339         8.19180         0.37404
H         21.95819        10.06142        -0.49694
H         21.93514        12.48463        -0.36127
H         21.90161        14.36546        -0.52998
H         21.88408        16.80567        -0.56535
H         21.91368        18.58447         0.46444
H         21.91765        20.97970         0.92397
H         21.96322        22.90033         0.09159
H         21.93973        25.32099        -0.08652
H         21.93160        27.22989        -0.25893
H         21.91209        29.65066        -0.39110
H         21.78287        31.49580        -0.91159
H         21.63625        33.86068        -1.48108
H         21.72045        35.83288        -1.26709
H         21.63167        38.28749        -1.43087
H         19.44589        39.49845        -1.39178
