         344
 CSIRO Nanostructure Databank - Neutral Graphene Oxide Data Set
C          1.41197         3.45951         1.10628
C          0.21301         4.11522         1.06015
C          1.26484         6.30668         0.69961
C          0.13826         5.52694         0.80301
C          1.21543         7.74003         0.43492
C          0.00619         8.46053         0.48333
C          1.14712        10.56459        -0.03286
C         -0.02404         9.83477         0.28805
C          1.11124        12.02716        -0.16446
C         -0.07912        12.75611        -0.04852
C          1.09911        14.89830        -0.04943
C         -0.09003        14.15617        -0.01872
C          1.12172        16.35967         0.00922
C         -0.06720        17.11658        -0.07406
C          1.18068        19.20832        -0.01678
C         -0.04079        18.50339        -0.10521
C          1.22966        20.66627        -0.12716
C          0.11144        21.40667        -0.69072
C          1.09410        23.51582         0.17815
C          0.06811        22.75516        -0.63182
C          1.19069        24.98634        -0.15030
C          0.03248        25.72114        -0.40946
C          1.29036        27.79899        -0.48401
C          0.07620        27.10796        -0.59198
C          1.34977        29.23344        -0.62241
C          3.83943         3.52987         0.72710
C          2.64758         4.17909         0.91614
C          3.76671         6.36394         0.34823
C          2.60690         5.68506         1.03357
C          3.66690         7.75090         0.09358
C          2.41897         8.46066         0.13671
C          3.57318        10.56932        -0.71675
C          2.36564         9.85920        -0.13824
C          3.56635        12.06753        -0.49504
C          2.33661        12.75964        -0.29838
C          3.57107        14.89507        -0.14939
C          2.32949        14.18674        -0.17952
C          3.62090        16.32329         0.13832
C          2.35636        17.05883         0.12376
C          3.68982        19.20934         0.18085
C          2.37100        18.46812         0.16032
C          3.55905        20.62476         0.79302
C          2.38134        21.36659         0.21283
C          3.63225        23.48745         0.30482
C          2.42372        22.79857         0.18100
C          3.66079        24.92743         0.19549
C          2.44317        25.65370        -0.04801
C          3.71749        27.77400        -0.01955
C          2.48658        27.07143        -0.20525
C          3.74940        29.22057        -0.16046
C          2.52375        29.91022        -0.46923
C          6.23005         3.53651         0.10366
C          5.04540         4.23500         0.33632
C          6.00501         6.28120        -0.76582
C          4.95431         5.65047         0.10929
C          6.11012         7.79993        -0.56218
C          4.95260         8.51787         0.11626
C          6.07063        10.66342        -0.36289
C          4.88743         9.95667        -0.30708
C          6.06222        12.10263        -0.57696
C          4.76717        12.78347        -0.56606
C          6.05466        14.85439        -0.14234
C          4.75497        14.19446        -0.37198
C          6.10143        16.24065         0.39668
C          4.81764        16.96539         0.39107
C          6.15178        19.12265         0.53046
C          4.84218        18.41066         0.81521
C          6.11506        20.58981         0.74069
C          4.86764        21.37271         0.61362
C          6.14522        23.48526         0.38243
C          4.88662        22.74615         0.45934
C          6.14190        24.91841         0.36970
C          4.88458        25.63663         0.30350
C          6.12690        27.80988         0.68225
C          4.88917        27.05961         0.26442
C          6.17931        29.24743         0.21464
C          4.95119        29.91274        -0.07226
C          8.65354         3.47073        -0.26329
C          7.44832         4.14817        -0.36001
C          8.68490         6.35105        -0.78782
C          7.37094         5.56457        -0.79627
C          8.63346         7.73695        -0.28071
C          7.40244         8.54167        -0.38927
C          8.49516        10.80042        -0.04313
C          7.35087        10.01389        -0.11285
C          8.52032        12.18879        -0.45351
C          7.24250        12.81615        -0.65224
C          8.52275        14.99592        -0.74349
C          7.20076        14.29173        -0.93352
C          8.57141        16.29425        -0.32708
C          7.44817        16.96861         0.47662
C          8.58218        19.19311         0.06411
C          7.33937        18.47009         0.30361
C          8.57832        20.57315         0.05101
C          7.41620        21.33988         0.50231
C          8.60608        23.49237         0.14127
C          7.36225        22.79530         0.28272
C          8.61686        24.91930         0.27298
C          7.37335        25.62840         0.36522
C          8.61230        27.75718         0.39758
C          7.40457        27.05895         0.41475
C          8.63734        29.21046         0.39020
C          7.38929        29.91142         0.21579
C         11.22837         3.43860        -0.03950
C          9.97226         4.07996        -0.48777
C         11.16568         6.31118        -0.05712
C          9.98738         5.61111        -0.60815
C         11.03404         7.62526         0.34904
C          9.70870         8.15068         0.45810
C         10.98794        10.72864         0.02111
C          9.75296        10.29385         0.42434
C         11.00443        11.98944        -0.82586
C          9.73229        12.81877        -0.68247
C         11.09651        14.96098        -1.25164
C          9.71131        14.20790        -1.30973
C         11.03384        16.34967        -0.63277
C          9.83047        17.03402        -0.39573
C         11.04292        19.15038        -0.28275
C          9.83234        18.45404        -0.20650
C         11.05159        20.62870         0.01527
C          9.77965        21.32870        -0.46368
C         11.05037        23.48293        -0.04283
C          9.81056        22.79116        -0.07028
C         11.07723        24.88828         0.20563
C          9.84960        25.60678         0.32035
C         11.07107        27.73710         0.51336
C          9.86538        27.04829         0.40604
C         11.09697        29.17476         0.55630
C          9.84925        29.87987         0.46296
C         13.69353         3.49409         0.18472
C         12.41472         4.14676         0.03943
C         13.55546         6.32116         0.42922
C         12.41325         5.60699         0.08957
C         13.50108         7.78537         0.68332
C         12.18743         8.51950         0.65985
C         13.42621        10.59729        -0.02712
C         12.20742         9.97775         0.26209
C         13.47766        12.04653        -0.28503
C         12.27430        12.77426        -0.56626
C         13.50476        14.87654        -0.54537
C         12.27804        14.16204        -0.69566
C         13.51569        16.31419        -0.59129
C         12.27468        17.03784        -0.56831
C         13.52597        19.15371        -0.54125
C         12.28656        18.46129        -0.44305
C         13.53012        20.61924        -0.70788
C         12.24444        21.35980        -0.54496
C         13.51391        23.48169        -0.25090
C         12.29119        22.80499        -0.25975
C         13.53124        24.89027         0.03199
C         12.32954        25.56211         0.28070
C         13.59089        27.72862         0.50356
C         12.33376        26.97173         0.80541
C         13.57951        29.15584         0.59642
C         12.31898        29.84931         0.64812
C         16.15255         3.54375         0.36496
C         14.87127         4.20823         0.27176
C         16.01663         6.39304         0.48046
C         14.84678         5.66760         0.39764
C         15.98943         7.86468         0.85957
C         14.73091         8.55348         0.41601
C         15.93577        10.55545        -0.45224
C         14.68190         9.86591         0.04550
C         15.98747        11.99498         0.10021
C         14.69944        12.73912        -0.21068
C         15.97487        14.86433        -0.37047
C         14.72656        14.15910        -0.34949
C         15.98342        16.29529        -0.49244
C         14.74321        17.01607        -0.54130
C         15.99763        19.16688        -0.64753
C         14.75906        18.45566        -0.59252
C         16.06117        20.66028        -0.91506
C         14.77873        21.38985        -0.60186
C         16.05901        23.51517        -0.60641
C         14.76098        22.74943        -0.44134
C         16.01894        24.91906        -0.04951
C         14.80373        25.59596         0.11448
C         16.04065        27.71881         0.37882
C         14.79930        27.01699         0.34062
C         16.04460        29.17568         0.47370
C         14.79452        29.85679         0.57495
C         18.61081         3.59589         0.54977
C         17.33040         4.24488         0.39217
C         18.54835         6.44514         0.60846
C         17.32088         5.73201         0.11379
C         18.52858         7.93095         0.89631
C         17.24673         8.59839         0.46392
C         18.47125        10.41640        -0.71294
C         17.21447         9.81747        -0.11365
C         18.44203        11.95802        -0.77319
C         17.22193        12.73136        -0.38719
C         18.46433        14.86106        -0.84626
C         17.20928        14.10845        -0.44439
C         18.49847        16.31761        -0.34287
C         17.19120        17.03677        -0.52655
C         18.47700        19.17396        -0.39054
C         17.20905        18.45257        -0.57420
C         18.46838        20.57534        -0.12373
C         17.27021        21.34237        -0.31202
C         18.47717        23.41630         0.20157
C         17.26824        22.71852        -0.15248
C         18.49617        24.84593         0.29088
C         17.24947        25.59439         0.19388
C         18.49531        27.75019         0.76271
C         17.24309        26.99167         0.39445
C         18.51202        29.11625         0.07420
C         17.24588        29.86650         0.39075
C         19.75873         4.31809         0.68705
C         20.96086         6.52346         0.96798
C         19.73091         5.76799         0.76285
C         21.00490         7.86720         0.75330
C         19.79539         8.60292         0.42603
C         20.99212        10.59450        -0.38594
C         19.76829         9.85676        -0.13475
C         21.00568        11.90071        -0.72983
C         19.75512        12.68354        -0.86933
C         20.96917        14.95179        -0.75369
C         19.75205        14.12908        -0.37779
C         20.93671        16.27937        -0.93875
C         19.65989        17.08855        -1.00584
C         20.88146        19.13097        -0.01933
C         19.69721        18.47762        -0.39978
C         20.86707        20.47417         0.32459
C         19.67892        21.23795         0.22833
C         20.87405        23.38198         0.67943
C         19.67848        22.67567         0.39567
C         20.89656        24.76159         0.72164
C         19.72056        25.52317         0.51861
C         20.94125        27.69957         0.50243
C         19.77913        26.98228         0.54405
C         20.93296        29.15066         0.54935
C         19.79130        29.85429         0.39000
O          8.04665         5.96433        -2.02932
O         10.23952         4.77239        -1.76376
O          9.61696         9.23768         1.33390
O          6.97208        20.99167         1.86989
O         12.83021         8.18607         1.94945
O         12.68025        21.00479        -1.88187
O         11.48683        15.27179        -2.58255
O          6.70390         8.40898        -1.72145
O          6.20392        15.06002         1.30616
O         18.99670        12.41639        -2.09416
O          3.28001        20.57031         2.21249
H          3.92419        19.94428         2.62568
O         15.81551        10.64241        -1.89136
H         16.63987        10.27013        -2.29317
O         16.22903        23.67924        -2.05358
H         16.30133        22.76776        -2.43356
O          4.70321        18.38203         2.26903
H          5.50687        17.94919         2.63138
O         17.39255         5.85633        -1.36284
H         16.65776         5.32212        -1.73457
O          5.46063         6.12111        -2.10487
H          6.15258         6.46782        -2.71575
O         19.74992        13.96868         1.06081
H         19.73577        14.87593         1.45315
O          6.02967        27.89051         2.15500
H          6.81728        28.38433         2.46913
O          9.76766        21.26525        -1.91276
H          8.99324        21.76679        -2.24048
O         16.23027        20.80376        -2.37543
H         15.43322        20.42144        -2.80361
O          4.09179        19.38650        -1.20655
H          3.32891        19.75776        -1.69838
O         19.39148        17.34381        -2.40140
H         19.12073        16.48655        -2.81192
O         11.14231        20.78129         1.45578
H         10.34652        20.36926         1.85629
O          9.44464        13.95829        -2.72155
H         10.15763        14.52013        -3.17930
O         11.01926        11.58355        -2.22920
H         10.70742        12.35840        -2.75599
O          6.83870        14.48839        -2.32989
H          7.65895        14.26785        -2.84717
O         18.44954        14.93588        -2.29045
H         18.46025        14.00485        -2.63013
O          0.61957        23.46889         1.57278
H          0.77682        22.55715         1.90149
O         18.49818        28.87365        -1.36641
H         18.54119        29.74035        -1.82089
O         18.40760        28.01090         2.19564
H         18.43329        27.14876         2.66045
O         15.90910         7.87293         2.33631
H         14.95929         7.91378         2.59093
O         12.35176        26.82334         2.28916
H         12.34217        27.72990         2.66542
O          3.46185        10.36244        -2.17159
H          4.29463        10.68270        -2.58004
O         18.75381        16.36177         1.09528
H         17.91002        16.18076         1.56038
O          7.89782        16.84966         1.86432
H          7.65251        15.93686         2.15022
O         18.44898         9.94159        -2.10012
H         18.95881        10.60304        -2.62737
O          2.80448         5.97329         2.47046
H          2.09990         5.49407         2.95685
O         16.10396        11.86375         1.54672
H         16.09517        12.76184         1.93792
O          5.35408         8.50513         1.54026
H          4.56681         8.72609         2.08244
O         18.59654         8.06024         2.35793
H         17.67948         7.94397         2.70725
H          1.44659         2.36509         1.21218
H         -0.72582         3.55298         1.16071
H         -0.85947         5.96214         0.64915
H         -0.93346         7.94224         0.71913
H         -0.98877        10.35136         0.37768
H         -1.04321        12.23550         0.02852
H         -1.05978        14.66424         0.07137
H         -1.03773        16.60839        -0.15283
H         -0.98640        19.05499        -0.19611
H         -0.68547        20.85253        -1.20799
H         -0.78407        23.29290        -1.07174
H         -0.94077        25.21330        -0.45250
H         -0.85075        27.66414        -0.79268
H          0.42031        29.77600        -0.84968
H          3.86994         2.42911         0.75119
H          2.55327        31.00443        -0.57755
H          6.25521         2.45858         0.32669
H          4.96950        30.99453        -0.27611
H          8.64103         2.45844         0.17158
H          7.41883        30.99411         0.01804
H         11.24423         2.34333         0.07262
H          9.86432        30.98003         0.44672
H         13.72794         2.39445         0.15768
H         12.32744        30.94867         0.68430
H         16.16486         2.44571         0.44815
H         14.78769        30.95592         0.62351
H         18.63692         2.49630         0.58590
H         17.24627        30.96840         0.39176
H         20.72437         3.80577         0.80917
H         21.88610         5.96711         1.17998
H         21.97594         8.38241         0.77389
H         21.95252        10.08060        -0.23730
H         21.96552        12.41984        -0.86281
H         21.94280        14.43698        -0.77833
H         21.87482        16.80039        -1.18853
H         21.83101        18.57833         0.00297
H         21.81127        20.95023         0.62000
H         21.81148        22.83695         0.85009
H         21.84625        25.27193         0.93145
H         21.91686        27.19901         0.42101
H         21.89330        29.66839         0.69137
H         19.80041        30.95509         0.37251
