         324
 CSIRO Nanostructure Databank - Neutral Graphene Oxide Data Set
C          1.31752         2.05659        -0.72116
C          1.29458         3.44319        -0.87089
C          2.52527         1.37452        -0.60289
C          2.49348         4.19930        -0.93160
C          1.24763         6.38148        -0.89010
C          1.18493         7.72503        -1.01684
C          2.48059         5.63505        -1.02292
C          2.37233         8.55372        -1.41453
C          1.14777        10.71421        -0.71299
C          1.12077        12.09659        -0.54233
C          2.33474         9.97055        -0.83821
C          2.31967        12.86058        -0.19310
C          1.19928        15.10026        -0.17835
C          1.22778        16.48642        -0.15118
C          2.38732        14.34325        -0.26101
C          2.45411        17.18209        -0.23332
C          2.49637        18.60867        -0.14613
C          3.74974         2.08235        -0.67904
C          3.74013         3.49741        -0.88184
C          4.98852         1.42300        -0.48953
C          4.98146         4.19450        -0.99388
C          3.70381         6.34555        -1.13921
C          3.69156         7.81691        -1.16916
C          4.92375         5.61665        -1.13593
C          4.85999         8.53122        -1.07317
C          3.57875        10.73640        -0.89981
C          3.64198        12.10687        -0.33052
C          4.90730        10.01363        -1.05585
C          4.89424        12.86626        -0.49842
C          3.63866        15.00339        -0.38979
C          3.67249        16.44697        -0.39364
C          4.87033        14.25197        -0.47816
C          4.88839        17.17001        -0.50316
C          3.68944        19.28406        -0.17272
C          4.92525        18.58084        -0.34275
C          6.22771         2.07148        -0.61166
C          6.23859         3.47809        -0.95684
C          7.38559         1.30110        -0.17341
C          7.46838         4.24861        -1.03506
C          6.18586         6.35054        -1.17213
C          6.16832         7.84454        -1.11070
C          7.43458         5.63464        -0.90128
C          7.31140         8.51493        -0.41001
C          6.12905        10.74048        -0.65821
C          6.14207        12.12485        -0.53019
C          7.38602         9.99842        -0.50527
C          7.37035        12.82504        -0.16430
C          6.15522        14.95303        -0.72168
C          6.14286        16.45914        -0.80573
C          7.39841        14.27565        -0.26742
C          7.44060        17.18782        -0.65789
C          6.16126        19.28807        -0.31367
C          7.40447        18.64050        -0.37956
C          8.68502         1.54487        -0.58060
C          8.77133         3.63564        -1.13732
C          9.94564         1.16715        -0.04852
C          9.96549         4.19390        -0.68183
C          8.67056         6.41101        -0.79520
C          8.58784         7.76948        -0.17907
C         10.00046         5.66954        -0.63343
C          9.83174         8.48889         0.16540
C          8.61335        10.69185         0.02010
C          8.49657        12.13707         0.26864
C          9.69589         9.88996         0.74319
C          9.60811        12.83513         0.94980
C          8.54142        14.97544         0.05569
C          8.67988        16.40960        -0.24562
C          9.61453        14.33490         0.86590
C          9.86248        17.15905         0.23285
C          8.63130        19.30040        -0.20743
C          9.85455        18.60700         0.01039
C         11.11789         1.96094        -0.18057
C         11.13804         3.41729        -0.34932
C         12.35719         1.31730         0.07843
C         12.31079         4.11957         0.03397
C         11.09143         6.37694         0.01076
C         11.02269         7.77665         0.26945
C         12.24661         5.56106         0.38746
C         12.28838         8.52884         0.53307
C         10.99155        10.67886         0.76729
C         10.93331        12.06838         1.21763
C         12.20734         9.91784         1.09707
C         12.18319        12.83427         1.40611
C         10.86235        15.10116         1.23798
C         10.95352        16.52174         0.77018
C         12.12594        14.34489         1.75329
C         12.17350        17.30912         1.07155
C         11.05458        19.31136         0.09908
C         12.27397        18.66751         0.46679
C         13.57383         2.00428         0.16526
C         13.55850         3.45167         0.22022
C         14.79928         1.28933         0.24224
C         14.77764         4.15020         0.42161
C         13.53539         6.28511         0.71198
C         13.57296         7.78152         0.62533
C         14.80491         5.55506         0.59473
C         14.78650         8.45447         1.13150
C         13.45580        10.63071         1.56894
C         13.40039        12.15057         1.54251
C         14.75806         9.83207         1.52923
C         14.59414        12.93919         1.57606
C         13.41516        15.06942         1.37297
C         13.45401        16.55109         1.40625
C         14.58467        14.34348         1.30971
C         14.76400        17.27138         1.20563
C         13.48473        19.27349         0.22267
C         14.76792        18.65994         0.57050
C         16.05831         1.90244         0.28976
C         16.07798         3.39763         0.63370
C         17.19791         1.06502         0.38487
C         17.26417         4.26273         0.22960
C         16.00165         6.30292         0.77427
C         15.99522         7.70380         1.13224
C         17.25535         5.63880         0.61018
C         17.23699         8.33980         1.41599
C         15.91168        10.27793         2.15679
C         15.88166        12.42601         1.95438
C         17.26899         9.64591         2.14632
C         17.08716        12.79452         1.42040
C         15.93784        14.97150         1.20504
C         16.02247        16.45878         1.08717
C         17.10217        14.12257         0.68385
C         17.21812        17.03759         0.44772
C         15.98047        19.10707        -0.10805
C         17.17953        18.36930        -0.08588
C         18.51182         1.52479         0.05844
C         18.48102         3.72878        -0.17160
C         19.77891         1.20543         0.48715
C         19.74056         4.29617         0.15277
C         18.47451         6.36076         0.68914
C         18.46680         7.72542         1.12499
C         19.72181         5.68671         0.52104
C         19.68619         8.47405         1.22998
C         18.42441        10.55798         1.70158
C         18.34499        12.05687         1.78564
C         19.65188         9.91259         1.42921
C         19.62021        12.83103         1.64858
C         18.42795        14.86513         0.79052
C         18.40707        16.27604         0.39261
C         19.61255        14.21463         1.07312
C         19.59781        16.89292        -0.04612
C         18.37080        18.92338        -0.62686
C         19.59078        18.22992        -0.55579
C         20.95224         2.03778         0.19984
C         20.93259         3.49979         0.17639
C         22.18804         1.40132         0.15857
C         22.16897         4.18805         0.35895
C         20.91717         6.38655         0.74958
C         20.91882         7.80130         1.00643
C         22.15485         5.61234         0.73826
C         22.12438         8.55437         0.87666
C         20.90788        10.62822         1.34182
C         20.92155        12.07207         1.65569
C         22.12036         9.96874         1.02424
C         22.20565        12.85093         1.49452
C         20.89366        14.87734         0.84251
C         20.85668        16.14331         0.05552
C         22.11332        14.28754         1.09782
C         22.11707        16.88130        -0.27920
C         20.80663        18.87065        -0.96366
C         22.05239        18.27153        -0.78260
C         23.42105         2.10968         0.01720
C         23.41081         3.53990         0.18281
C         24.62201         1.43656        -0.24544
C         24.65226         4.27327         0.06235
C         23.45887         6.40030         0.59917
C         23.32328         7.86243         0.38834
C         24.66306         5.71217         0.13454
C         24.63157         8.63220         0.20774
C         23.38873        10.71406         0.89271
C         23.41672        12.09826         1.11098
C         24.62121        10.04325         0.58549
C         24.68711        12.82454         1.10804
C         23.37968        15.07797         0.98478
C         23.39544        16.45278         0.35948
C         24.69364        14.35809         1.07864
C         24.65738        17.11727        -0.07352
C         23.26842        18.86467        -1.16214
C         24.55219        18.29258        -0.90858
C         25.84113         2.14879        -0.40584
C         25.83381         3.56785        -0.23870
C         27.04695         1.48538        -0.75658
C         27.08074         4.33467        -0.58725
C         25.85209         6.47167         0.02042
C         25.89221         7.86942         0.18783
C         27.12339         5.70737         0.04113
C         27.13179         8.60110         0.18988
C         25.87379        10.73329         0.53471
C         25.90416        12.11635         0.72922
C         27.11397        10.01443         0.26135
C         27.10590        12.88310         0.28985
C         25.90999        15.05594         0.60781
C         25.87511        16.44989         0.25712
C         27.13521        14.36328         0.58974
C         27.13931        17.08214         0.08740
C         25.63610        18.86050        -1.65587
C         26.98515        18.70277        -1.29097
C         28.29531         2.16878        -0.79912
C         28.34946         3.53258        -0.48575
C         29.51812         1.47649        -1.16638
C         29.65342         4.20881        -0.43198
C         28.42171         6.45427         0.09023
C         28.38396         7.92514        -0.00450
C         29.71061         5.73173        -0.19797
C         29.56873         8.63278        -0.24937
C         28.36297        10.73174         0.22441
C         28.38374        12.11897         0.42551
C         29.59837        10.03583        -0.03494
C         29.65043        12.82355         0.55704
C         28.35590        15.03400         0.32834
C         28.35972        16.40672        -0.04942
C         29.63434        14.36102         0.56108
C         29.51608        16.98947        -0.72165
C         28.14029        18.67671        -2.07750
C         29.37568        18.04791        -1.69326
C         30.68322         2.15551        -1.38205
C         30.79371         3.56546        -1.10217
C         31.91298         4.32505        -1.39067
C         30.83959         6.45947        -0.77844
C         30.75820         7.96811        -0.92949
C         31.91108         5.74793        -1.26958
C         32.04661         8.66785        -0.57836
C         30.85094        10.75526        -0.06105
C         30.89592        12.12651         0.21738
C         32.06826         9.97708        -0.25898
C         32.09948        12.92972         0.15191
C         30.91376        15.17976         0.39628
C         30.75786        16.29549        -0.63191
C         32.11612        14.28524         0.18210
C         31.84580        16.68809        -1.40957
C         30.51019        18.38513        -2.48408
C         31.72209        17.73993        -2.33314
O         27.79665         5.89773         1.30905
O         23.00802         5.93661         1.90212
O          6.42413         7.22058        -2.39808
O         23.31987        16.29279         1.81772
O         21.72555        12.45894         2.82641
O          4.24126        10.63702        -2.22263
O          8.80563         2.37754        -1.71826
O         14.94359        18.42827         2.04213
O         13.15941         8.39530        -0.65716
O          8.41235        16.77393        -1.65389
O         12.68061         5.80459         1.79725
O         30.04372         4.79784         0.86418
O         24.87766        13.66725         2.34317
O         12.54639        10.02377         2.54742
O         16.31211        15.75857         2.36267
O         12.63250        17.16034         2.44658
O         29.68674        13.62842         1.82398
O          9.58796         6.30566        -1.91505
O         21.56491        15.92894        -1.25121
O         18.97258        12.69106         2.96922
O          7.55675         7.89852         0.88637
O          9.89588        12.33859         2.28234
O          9.74447        14.96435         2.19008
O          6.13502        15.63402        -2.02011
O          8.47507        10.40596        -1.41472
O          3.02905        12.26877         0.97445
O         23.74191         8.30615        -0.93919
O         27.17516        18.47321         0.09263
O         15.86008        11.41308         2.93714
O         18.46981         2.55439        -0.91002
O         12.06073        14.39143         3.19691
H         11.11164        14.30038         3.44577
O          9.25739         9.69609         2.11735
H          9.45467        10.52828         2.61177
O         16.85516        13.92772        -0.73999
H         17.62439        13.46307        -1.13050
O          2.29232         8.74082        -2.86534
H          3.03610         9.34442        -3.10928
O         26.97307         4.63723        -2.03710
H         26.82655         3.78708        -2.50536
O         26.92642        12.93508        -1.22122
H         26.87599        12.00418        -1.53436
O         16.22788         3.32589         2.10346
H         16.03233         4.21586         2.46936
O         31.13272        15.84652         1.66980
H         30.91964        15.18948         2.37047
O         17.55354         9.33260         3.55885
H         17.54726        10.18694         4.04530
O         30.53775         8.20601        -2.36483
H         30.57415         9.17491        -2.51198
H          0.36980         1.50195        -0.67957
H          0.32139         3.94474        -0.95008
H          2.53877         0.28556        -0.45452
H          0.32575         5.83637        -0.64408
H          0.21354         8.22589        -0.89907
H          0.18434        10.20508        -0.86295
H          0.16593        12.62347        -0.67655
H          0.23470        14.58294        -0.08291
H          0.29258        17.05344        -0.04099
H          1.55053        19.15742        -0.03058
H          4.97559         0.35488        -0.22610
H          3.71251        20.37859        -0.07227
H          7.19621         0.51133         0.56900
H          6.13757        20.37602        -0.15183
H         10.03779         0.21645         0.49884
H          8.64281        20.39928        -0.15146
H         12.36503         0.22051         0.16570
H         11.07478        20.38357        -0.14430
H         14.75436         0.19162         0.16259
H         13.50199        20.24078        -0.30120
H         17.03849         0.00163         0.62782
H         15.95319        20.06432        -0.64917
H         19.94001         0.31878         1.11835
H         18.34895        19.94319        -1.03670
H         22.22274         0.30224         0.19399
H         20.75091        19.89122        -1.37011
H         24.61734         0.34319        -0.36451
H         23.23391        19.82626        -1.69599
H         27.02349         0.40318        -0.95124
H         25.38548        19.39087        -2.58699
H         29.46340         0.39632        -1.36482
H         28.08917        19.09249        -3.09550
H         31.57034         1.62546        -1.75929
H         32.79602         3.83967        -1.83138
H         32.77582         6.28948        -1.67993
H         32.99310         8.11682        -0.67673
H         33.03602        10.46541        -0.07680
H         33.06128        12.40830         0.03633
H         33.09624        14.78507         0.16890
H         32.80911        16.16912        -1.31910
H         30.40905        19.18914        -3.22733
H         32.58658        18.03499        -2.94341
