         634
 CSIRO Nanostructure Databank - Neutral Graphene Oxide Data Set
C         23.59267        69.88590        -2.94099
C         23.56102        71.27308        -2.95551
C         22.50352        71.99174        -3.56969
C         23.66807        74.11597        -3.28009
C         22.54712        73.38475        -3.68593
C         25.79443        65.61877        -1.77885
C         25.82549        67.01497        -1.90217
C         24.69463        67.75891        -2.35617
C         25.87604        69.87804        -1.95470
C         24.70375        69.15187        -2.40886
C         25.88679        71.31864        -1.96143
C         24.59175        72.05853        -2.17179
C         25.96454        74.15075        -2.41728
C         24.77745        73.47715        -2.66892
C         28.04123        61.34844        -0.69265
C         28.05453        62.75585        -0.81697
C         26.90744        63.48278        -1.21644
C         28.16631        65.59322        -1.08976
C         26.93303        64.88485        -1.34668
C         28.19227        67.02137        -1.16837
C         27.02556        67.73589        -1.54113
C         28.13267        69.91137        -0.89549
C         27.01049        69.16056        -1.55685
C         28.26709        71.34656        -1.34014
C         27.05861        72.03748        -1.71096
C         28.31499        74.15778        -1.66843
C         27.12401        73.47674        -1.91012
C         30.34729        57.08636         0.22269
C         30.33195        58.50982         0.20303
C         29.19202        59.21884        -0.21890
C         30.42037        61.34752        -0.03488
C         29.19869        60.63155        -0.32213
C         30.45473        62.74723        -0.15862
C         29.28922        63.46715        -0.57730
C         30.66618        65.54971        -0.82537
C         29.32967        64.86446        -0.75717
C         30.60295        67.03490        -0.54721
C         29.41080        67.73884        -0.85142
C         30.62334        69.84763        -0.65075
C         29.42777        69.15413        -0.84788
C         30.75442        71.28910        -1.06227
C         29.45056        72.02853        -1.17111
C         30.68121        74.14761        -0.92855
C         29.50707        73.47175        -1.27047
C         32.73005        52.79069         0.39665
C         32.73001        54.19922         0.43613
C         31.51456        54.95454         0.35516
C         32.69840        56.97533         1.22123
C         31.49625        56.34343         0.52817
C         32.69099        58.54403         1.24274
C         31.52471        59.23044         0.54664
C         32.79544        61.35400         0.75346
C         31.58262        60.61341         0.39557
C         32.78332        62.75929         0.73847
C         31.66983        63.47920         0.18805
C         33.06128        65.58400         0.03203
C         31.75853        64.83889        -0.07127
C         32.87340        67.01142         0.54111
C         31.74569        67.73602        -0.14882
C         32.98006        69.88566         0.11158
C         31.78360        69.15067        -0.23506
C         32.96817        71.32177         0.11801
C         31.83090        72.03602        -0.32905
C         32.92174        74.17829         0.13189
C         31.83602        73.47044        -0.38436
C         35.22808        48.48327         0.41866
C         35.19615        49.89446         0.38242
C         33.97963        50.63401         0.37691
C         35.16717        52.79082         0.25447
C         33.94304        52.05578         0.36239
C         35.18812        54.19766         0.30371
C         33.97196        54.91593         0.45967
C         35.18672        57.03070         0.70257
C         34.00030        56.34385         0.72220
C         35.22506        58.43742         1.25318
C         33.99994        59.17190         0.70473
C         35.21454        61.33868         1.34232
C         33.99810        60.65199         1.01867
C         35.19882        62.73106         1.47247
C         33.91412        63.50962         1.38656
C         35.29173        65.60956         1.10218
C         34.13762        64.89743         0.83680
C         35.35005        67.04788         0.83217
C         34.19295        67.75262         0.51430
C         35.36293        69.92700         0.68362
C         34.17611        69.19417         0.43244
C         35.31955        71.32959         0.80507
C         34.12226        72.02304         0.58612
C         35.37394        74.14748         0.47458
C         34.06273        73.51088         0.83527
C         37.65073        44.16035         0.07097
C         37.66844        45.66655         0.25161
C         36.47414        46.35503         0.31721
C         37.69867        48.48935         0.37753
C         36.45061        47.77971         0.37620
C         37.66865        49.91457         0.39334
C         36.45138        50.59136         0.34448
C         37.69388        52.81207         0.01334
C         36.41592        52.04101         0.07011
C         37.63911        54.28031         0.09472
C         36.44689        54.92810         0.19494
C         37.72129        57.09630         0.44249
C         36.41146        56.43091         0.05063
C         37.68068        58.50837         0.75791
C         36.50790        59.18925         0.98671
C         37.67984        61.30638         1.44191
C         36.49089        60.61703         1.31287
C         37.73053        62.71303         1.83953
C         36.40085        63.49093         1.83349
C         37.70696        65.62106         1.65159
C         36.48638        64.94348         1.58332
C         37.73224        67.05825         1.42622
C         36.59562        67.74022         1.03825
C         37.83926        69.97017         1.16097
C         36.67074        69.18798         0.62490
C         37.80407        71.33380         1.20542
C         36.50956        72.09790         1.34460
C         37.80894        74.18086         0.79982
C         36.58493        73.50948         0.77959
C         40.17370        39.90583        -0.10142
C         40.15215        41.32430         0.11213
C         38.95095        42.02215         0.31476
C         40.15450        44.24351         0.38122
C         38.88140        43.48167         0.68936
C         40.15244        45.60461         0.23483
C         38.91335        46.37182         0.25876
C         40.21170        48.52394         0.34380
C         38.93949        47.78322         0.32853
C         40.22853        49.93708         0.42744
C         38.94620        50.65507         0.56781
C         40.22092        52.88913         0.23699
C         38.95496        52.14541         0.45176
C         40.17650        54.23676         0.00689
C         38.90136        55.01249        -0.27557
C         40.21036        57.08991         0.34914
C         38.91850        56.42615         0.27146
C         40.20099        58.60118         0.32524
C         38.99243        59.19843         1.04242
C         40.21055        61.33582         1.36760
C         38.93389        60.71980         0.83830
C         40.20370        62.76240         1.58283
C         38.97711        63.47823         1.66523
C         40.21772        65.58084         1.62263
C         38.97307        64.88977         1.72191
C         40.27531        67.03464         1.81624
C         38.97953        67.80826         1.70074
C         40.27282        69.93562         1.60399
C         39.07945        69.25895         1.40658
C         40.32405        71.36448         1.47110
C         39.08834        72.08577         0.99178
C         40.33104        74.21288         1.18176
C         39.00833        73.53912         1.45573
C         42.69333        35.61969        -0.43202
C         42.61385        37.04599        -0.47448
C         41.44354        37.75044        -0.26165
C         42.60487        39.93586        -0.21365
C         41.38658        39.20549        -0.20938
C         42.61692        41.35152        -0.07065
C         41.39632        42.03148         0.14836
C         42.67429        44.18014         0.24471
C         41.42169        43.45478         0.62377
C         42.64629        45.62623         0.46064
C         41.43344        46.35564        -0.07172
C         42.67597        48.53362         0.33268
C         41.44060        47.82866         0.27133
C         42.69080        49.97060         0.35951
C         41.44775        50.67876         0.37066
C         42.69622        52.80089         0.26463
C         41.47065        52.12340         0.31073
C         42.68792        54.31704         0.33933
C         41.45097        54.98478        -0.31206
C         42.67818        57.20417         0.16808
C         41.39585        56.44373         0.12762
C         42.66401        58.56749         0.76276
C         41.45971        59.23910         0.86372
C         42.64351        61.20873         1.80120
C         41.38601        60.58989         1.36288
C         42.65806        62.75345         1.82763
C         41.42075        63.48053         1.58167
C         42.69256        65.60718         1.21645
C         41.44337        64.89864         1.48935
C         42.68431        67.08440         1.18424
C         41.54359        67.75610         1.59414
C         42.78797        69.99959         1.71446
C         41.53544        69.21442         2.03639
C         42.77676        71.38403         1.75319
C         41.51174        72.07401         1.60512
C         42.77043        74.14437         1.02744
C         41.51030        73.51259         1.30655
C         45.14563        32.84178        -0.86708
C         43.93806        33.51273        -0.69759
C         45.08899        35.68290        -1.22378
C         43.86159        34.93041        -0.73324
C         45.15284        37.07497        -0.68586
C         43.86307        37.83766        -0.86293
C         45.11676        39.90011        -0.51728
C         43.88431        39.15340        -0.09103
C         45.10953        41.40007        -0.47146
C         43.85639        42.08934        -0.13613
C         45.10687        44.27280        -0.23077
C         43.86106        43.49497         0.01175
C         45.17755        45.66622         0.22081
C         43.93983        46.38374         0.50753
C         45.17036        48.50859         0.40475
C         43.92772        47.83686         0.34971
C         45.18938        49.95870         0.43342
C         43.93779        50.67666         0.37264
C         45.19009        52.82571         0.39158
C         43.93648        52.10066         0.33357
C         45.20395        54.22492         0.33945
C         43.98713        54.95296        -0.17351
C         45.20742        57.11769         0.66215
C         43.99360        56.47006         0.08003
C         45.15522        58.45800         1.04509
C         43.92030        59.20026         1.10871
C         45.14743        61.30440         1.64939
C         43.91930        60.53192         1.56096
C         45.12257        62.75920         1.60774
C         43.91856        63.43677         1.54738
C         45.08106        65.27642         0.52116
C         43.85544        64.81587         1.11750
C         45.05729        67.40127         0.34365
C         43.89397        67.90515         0.97415
C         45.21531        69.96058         1.22847
C         43.97684        69.26122         1.37259
C         45.28693        71.34149         1.57242
C         44.06489        72.18128         1.94008
C         45.15402        74.31194         0.81281
C         44.01266        73.55561         1.22785
C         46.36014        33.53068        -1.03404
C         47.57376        35.67220        -1.18321
C         46.38761        34.93409        -1.09060
C         47.67054        37.06526        -0.89859
C         46.43190        37.67300        -0.14504
C         47.47158        39.95489         0.07965
C         46.37775        39.19804        -0.20987
C         47.57480        41.38284        -0.17521
C         46.40911        42.08595        -0.34397
C         47.68246        44.27431        -0.20196
C         46.42103        43.55335        -0.45901
C         47.64942        45.64636         0.04070
C         46.38916        46.36104         0.22373
C         47.65902        48.44567         0.87219
C         46.38309        47.77145         0.45124
C         47.67371        49.92606         0.58963
C         46.42096        50.63537         0.49679
C         47.65538        52.74946         0.47319
C         46.44280        52.08433         0.48649
C         47.67182        54.21146         0.40180
C         46.40755        54.96562         0.51771
C         47.65720        56.96240         1.37571
C         46.41286        56.34383         0.75515
C         47.67000        58.46474         1.27694
C         46.36870        59.13130         1.66279
C         47.54524        61.36094         1.07576
C         46.34361        60.62749         1.48498
C         47.62776        62.80887         1.24150
C         46.40654        63.56887         1.68563
C         47.56214        65.60199         0.63942
C         46.33811        64.84423         0.86687
C         47.55092        67.05649         0.10968
C         46.34383        67.90065         0.50878
C         47.66080        69.96349         0.72977
C         46.43016        69.26972         0.89225
C         47.72596        71.35591         1.03926
C         46.54961        71.90710         1.64145
C         47.68550        74.39696         0.54596
C         46.48628        74.02675         1.16069
C         48.88213        37.70538        -1.17279
C         50.17803        39.92567        -1.01672
C         49.30636        38.96224        -0.60172
C         50.18414        41.28239        -0.30563
C         48.87557        42.05091        -0.62632
C         50.12750        44.19994        -0.23131
C         48.92740        43.53135        -0.25741
C         50.14510        45.70262        -0.36390
C         48.88574        46.38916         0.10569
C         50.14888        48.46735         0.41226
C         48.90171        47.73942         0.37617
C         50.13963        49.84209         0.60586
C         48.90022        50.57199         0.55501
C         50.19273        52.74915         0.77939
C         48.96412        52.03777         0.22087
C         50.18452        54.12527         0.88057
C         48.97643        54.91567         0.57911
C         50.14705        57.03411         1.01821
C         48.95909        56.34070         0.95101
C         50.12367        58.48516         1.00210
C         48.83272        59.14840         1.06321
C         50.07739        61.37616         0.84419
C         48.82236        60.61069         0.83036
C         50.05002        62.77985         0.80533
C         48.79293        63.49622         0.97436
C         50.05983        65.69217         1.05082
C         48.76412        64.95298         0.85021
C         50.05264        67.11007         0.53831
C         48.84706        67.79319         0.40286
C         50.06865        69.93081         0.27219
C         48.86022        69.22414         0.39701
C         49.95703        71.40838        -0.06406
C         48.86115        72.14726         0.69474
C         50.11619        74.24687         0.35228
C         48.87716        73.58413         0.59205
C         51.39118        42.11677        -0.66558
C         52.60245        44.22619        -0.36168
C         51.40014        43.50220        -0.43831
C         52.66889        45.57563         0.28686
C         51.39779        46.36775         0.13000
C         52.65969        48.46890         0.28478
C         51.40546        47.73162         0.30866
C         52.66988        49.85225         0.44943
C         51.42979        50.52854         0.99387
C         52.66225        52.69068         0.79910
C         51.43825        52.02626         0.82987
C         52.73178        54.12409         1.09981
C         51.39497        54.87590         1.21400
C         52.62506        57.01033         0.97696
C         51.41930        56.33338         1.01432
C         52.59012        58.48931         0.98051
C         51.29612        59.20063         0.86258
C         52.48819        61.35677         0.50213
C         51.30299        60.65212         0.75166
C         52.50380        62.78044         0.51206
C         51.28298        63.50504         0.68204
C         52.52257        65.62274         0.56930
C         51.30790        64.92532         0.68663
C         52.53827        67.07912         0.53427
C         51.29761        67.80346         0.48251
C         52.55605        69.89902         0.22212
C         51.30353        69.21977         0.27191
C         52.59728        71.35312         0.01071
C         51.30255        72.12547        -0.09177
C         52.58842        74.21805         0.25460
C         51.34068        73.57373         0.19973
C         53.86652        46.36200        -0.15624
C         55.04915        48.51762        -0.33708
C         53.87196        47.75904        -0.09483
C         55.07294        49.91863        -0.15825
C         53.87018        50.59985         0.25464
C         55.07833        52.76102         0.23161
C         53.89133        52.01160         0.44955
C         55.10429        54.19718         0.36366
C         53.92794        54.90509         0.76368
C         55.09191        57.04886         0.49927
C         53.89040        56.31416         0.80472
C         55.07814        58.46722         0.37120
C         53.84235        59.23524         0.65933
C         54.96622        61.38185         0.10336
C         53.69263        60.60236         0.01702
C         54.97985        62.74499         0.26656
C         53.74057        63.48978         0.41628
C         55.01558        65.60831         0.45966
C         53.75996        64.90099         0.46305
C         55.02830        67.05467         0.54622
C         53.76286        67.77196         0.50142
C         54.99220        69.93920         0.57457
C         53.76659        69.20706         0.41677
C         55.02928        71.35028         0.55032
C         53.83372        72.08293         0.31574
C         55.06554        74.19546         0.39707
C         53.81699        73.50427         0.30571
C         56.25156        50.67557        -0.36561
C         57.45588        52.82316        -0.44464
C         56.27688        52.07726        -0.18963
C         57.49424        54.22884        -0.31421
C         56.29296        54.92317         0.09801
C         57.50859        57.07958        -0.03767
C         56.30225        56.34871         0.19730
C         57.48381        58.48819        -0.03733
C         56.24022        59.16742         0.05706
C         57.46008        61.31613         0.17990
C         56.20201        60.63586        -0.32594
C         57.43461        62.80577         0.00938
C         56.24106        63.48033         0.19772
C         57.49470        65.60028         0.39632
C         56.23512        64.91226         0.35179
C         57.51920        66.99420         0.96566
C         56.22804        67.73658         0.68328
C         57.50476        69.94464         1.08176
C         56.20330        69.18715         0.92011
C         57.49286        71.39961         0.84952
C         56.29137        72.06606         0.68468
C         57.51644        74.21405         0.43434
C         56.26956        73.51757         0.53583
C         58.66689        54.96568        -0.59489
C         59.90394        57.09385        -0.67489
C         58.73229        56.37921        -0.42832
C         60.01580        58.51521        -0.20217
C         58.70285        59.25182        -0.28929
C         59.79028        61.38581        -1.01144
C         58.67601        60.61162        -0.36161
C         59.79651        62.85350        -0.65439
C         58.66447        63.52052        -0.21831
C         59.90469        65.69826        -0.15601
C         58.66729        64.95742         0.02441
C         59.94017        67.12859         0.18562
C         58.79345        67.76595         0.64793
C         60.10276        69.98435         0.89388
C         58.81486        69.19263         1.03111
C         60.01450        71.39929         0.56657
C         58.79495        72.15105         1.06243
C         59.93368        74.24111         0.17954
C         58.73539        73.57037         0.54631
C         61.20020        59.34619        -0.63645
C         62.31851        61.52510        -0.87672
C         61.13668        60.70694        -0.80110
C         62.28725        62.91033        -0.98147
C         60.96386        63.63954        -1.18315
C         62.19172        65.84431        -1.17140
C         61.00638        65.06448        -0.68706
C         62.29285        67.22128        -0.56422
C         61.18502        67.84774        -0.00515
C         62.44501        70.04087        -0.09942
C         61.40243        69.21703         0.63127
C         62.44483        71.43387        -0.07418
C         61.31389        72.18038         0.59116
C         62.29490        74.27558        -0.42486
C         61.16336        73.59809         0.08217
C         63.48525        63.67250        -1.02499
C         64.68975        65.79746        -1.22900
C         63.49644        65.07185        -1.09448
C         64.69542        67.21738        -1.20176
C         63.52047        67.92224        -0.77995
C         64.71764        70.06419        -1.05411
C         63.56081        69.34591        -0.64533
C         64.71511        71.47329        -0.99656
C         63.56296        72.15844        -0.57507
C         64.57775        74.30468        -1.31559
C         63.49606        73.61290        -0.71269
C         65.85716        67.95147        -1.56645
C         66.96843        70.09048        -2.10276
C         65.87230        69.34652        -1.55360
C         66.98605        71.47614        -2.10039
C         65.98998        72.23316        -1.25001
C         66.78802        74.31578        -2.39486
C         65.75565        73.65620        -1.70309
C         67.99466        72.22459        -2.76709
C         67.90471        73.60953        -2.87850
O         39.53200        67.46582         3.02783
O         42.61139        61.95550         3.05128
O         37.11526        52.30978        -1.23488
O         53.42558        59.12860         2.04434
O         47.95535        60.95521        -0.31376
O         52.12546        54.44468         2.40051
O         56.73487        69.54565         2.28313
O         44.93094        66.25919        -0.46336
O         43.15925        45.99434         1.78478
O         37.02987        63.03964         3.08086
O         61.84913        66.02632        -2.55671
O         43.45995        57.17642        -1.09738
O         46.65702        73.15569         2.26630
O         48.58943        39.27615         0.58456
O         45.65536        44.08486        -1.59584
O         38.88135        51.53179         1.78135
O         52.03028        71.77868        -1.31670
O         59.56783        69.56519         2.26280
O         48.45728        54.69698        -0.81043
O         45.02955        40.62561        -1.76210
O         33.47599        63.71374         2.78667
H         34.23301        64.09643         3.28076
O         32.59378        58.98443         2.62581
H         32.02786        58.33599         3.10231
O         36.98119        69.12194        -0.83159
H         36.25200        68.62127        -1.25812
O         44.14545        72.48016         3.36015
H         45.01062        72.92708         3.50275
O         24.00959        72.20271        -0.81996
H         23.16475        72.69039        -0.92594
O         41.53243        69.16802         3.50010
H         40.72844        68.65671         3.76699
O         38.69721        43.51793         2.14148
H         39.57879        43.29326         2.53110
O         51.49398        50.33021         2.45924
H         52.21482        50.89978         2.80405
O         41.49831        43.37004         2.12253
H         41.93388        44.19779         2.43265
O         57.55507        66.83540         2.42988
H         57.40279        67.73705         2.80704
O         47.51545        66.91872        -1.34363
H         46.63228        66.54402        -1.56656
O         62.01444        68.91814         1.92014
H         61.27856        68.88412         2.57697
O         44.07945        54.74957        -1.61433
H         44.81756        55.30209        -1.94855
O         50.17980        45.91999        -1.83192
H         49.35485        45.53673        -2.20092
O         49.46853        71.43876        -1.44848
H         50.26657        71.33600        -2.01914
O         35.17467        58.35431         2.70152
H         34.24509        58.54559         2.99450
O         60.75513        63.70090        -2.63405
H         61.16283        64.58575        -2.92531
O         49.15175        52.08486        -1.23822
H         49.01188        53.03039        -1.49927
O         50.13984        65.85057         2.52422
H         51.01162        66.25213         2.72963
O         32.49100        66.90737         1.94156
H         32.32749        67.81239         2.28002
O         46.61142        37.25486         1.23821
H         47.41269        37.72449         1.56252
O         59.51902        61.31097        -2.44586
H         59.93833        62.10676        -2.86274
O         38.80066        73.52954         2.89468
H         38.58542        74.43982         3.18352
O         58.94196        72.25010         2.53079
H         58.98936        71.31404         2.85434
O         36.47398        43.59009         0.63732
H         36.64448        43.50672         1.60132
O         40.13427        58.91266        -1.10377
H         40.92275        58.51585        -1.53341
O         41.60304        46.28838        -1.52756
H         40.84314        46.74937        -1.94165
O         41.51514        54.98934        -1.76304
H         42.44714        55.20670        -2.02926
O         38.81266        61.09636        -0.56126
H         39.36966        60.47762        -1.09536
O         34.02103        59.05865        -0.73994
H         34.67417        58.37406        -1.01161
O         39.24326        58.95513         2.45053
H         38.44723        59.22201         2.95788
O         43.71432        38.17003        -2.26966
H         43.86093        37.33177        -2.77471
O         33.59042        65.71528        -1.33838
H         33.85892        64.82072        -1.63927
O         38.80749        55.17638        -1.73549
H         39.73523        55.19639        -2.08512
O         53.45675        60.30922        -1.41549
H         53.17697        61.14647        -1.84477
O         42.64156        54.65709         1.75075
H         41.91476        54.14888         2.16935
O         48.79542        42.03450        -2.08096
H         47.93690        42.42577        -2.35145
O         46.23426        58.93268         3.11273
H         46.38750        57.96976         3.28581
O         44.88566        35.78928        -2.70149
H         45.74660        36.06144        -3.08866
O         47.69440        48.32510         2.34503
H         47.70043        47.36876         2.56320
O         57.47959        61.09708         1.63083
H         58.03387        61.79357         2.04123
O         44.05318        38.86847         1.32138
H         43.34623        38.24561         1.59402
O         36.26254        72.23004         2.77559
H         35.45489        72.79751         2.87099
O         61.66498        72.29627         2.00831
H         60.83423        72.54891         2.48405
O         52.82505        45.32463         1.75516
H         52.79620        46.19687         2.20453
O         46.58504        63.90593         3.09699
H         47.41851        64.41898         3.17196
O         27.72135        70.01481         0.52449
H         26.84047        70.44867         0.53823
O         39.20595        72.16436        -0.47315
H         39.12074        71.25397        -0.82965
O         33.87941        73.69402         2.32002
H         33.01221        73.29883         2.55532
O         56.21208        60.67283        -1.77644
H         55.34381        60.31474        -2.07643
O         50.24450        41.12836         1.13227
H         51.01991        40.57211         1.35105
O         31.24543        71.22581        -2.46372
H         32.12662        70.79456        -2.44255
O         31.04337        65.46742        -2.25469
H         31.97068        65.80611        -2.31250
O         36.26221        56.71134        -1.38459
H         37.01409        56.25274        -1.83491
O         47.54262        56.60164         2.81836
H         48.36763        56.89665         3.26232
O         32.55999        56.55145         2.61378
H         32.55360        55.57009         2.61886
O         60.23337        58.38235         1.26787
H         59.82354        59.16217         1.70137
O         66.63675        72.35621         0.06947
H         67.46489        72.86483        -0.06252
H         23.72559        75.19197        -3.50154
H         26.04757        75.21728        -2.67925
H         28.34797        75.25034        -1.79810
H         30.70383        75.24651        -0.98590
H         32.90099        75.27880         0.12018
H         35.37852        75.15561         0.03196
H         37.85729        75.23317         0.47391
H         40.35951        75.29052         0.95296
H         42.73879        75.17582         0.63986
H         44.97280        75.13884         0.10737
H         47.71440        75.28762        -0.10013
H         50.12635        75.34672         0.38678
H         52.61516        75.31274         0.36309
H         55.07044        75.29270         0.31764
H         57.49453        75.27669         0.14595
H         59.85735        75.29196        -0.14487
H         62.20789        75.34790        -0.66208
H         64.45968        75.37785        -1.53456
H         66.69112        75.38973        -2.61279
H         22.76225        69.32245        -3.39507
H         21.66788        71.43397        -4.01769
H         21.71592        73.90775        -4.17968
H         24.86836        65.07534        -2.02002
H         23.79302        67.21287        -2.67268
H         27.10904        60.79847        -0.89124
H         25.97806        62.93737        -1.43952
H         29.45676        56.54871        -0.13832
H         28.27572        58.66477        -0.47181
H         31.77123        52.25216         0.39695
H         30.59223        54.43815         0.04802
H         34.28457        47.91840         0.44420
H         33.02840        50.08226         0.41129
H         37.63584        43.94633        -1.03340
H         35.52804        45.79450         0.30774
H         39.22172        39.35450        -0.10816
H         38.00332        41.46179         0.33343
H         41.81491        35.05488        -0.08123
H         40.49935        37.19745        -0.13464
H         45.15888        31.74347        -0.82372
H         43.01447        32.93738        -0.53526
H         47.30641        32.97044        -1.05480
H         48.51487        35.11944        -1.34282
H         49.57401        37.19669        -1.86462
H         50.74953        39.80825        -1.94789
H         52.35425        41.60239        -0.81878
H         53.55022        43.71148        -0.58479
H         54.79411        45.82521        -0.40685
H         55.97127        47.99698        -0.63529
H         57.16956        50.15997        -0.68498
H         58.36211        52.29015        -0.76934
H         59.57130        54.42520        -0.91323
H         60.80019        56.56468        -1.03369
H         62.19095        58.86809        -0.55384
H         63.29743        61.02442        -0.78702
H         64.44785        63.13485        -0.98338
H         65.64113        65.26303        -1.38281
H         66.74116        67.40313        -1.92519
H         67.77750        69.53804        -2.60617
H         68.82036        71.68943        -3.25917
H         68.68683        74.15740        -3.42277
