         244
 CSIRO Nanostructure Databank - Neutral Graphene Oxide Data Set
C          1.26107         1.98272         0.17682
C          1.19306         3.40969         0.12738
C          2.41014         1.28613        -0.07806
C          2.34893         4.19801         0.01310
C          1.13490         6.39766         0.03406
C          1.14354         7.75896         0.18788
C          2.33904         5.61240         0.02758
C          2.36230         8.47833         0.62585
C          1.24230        10.72628         0.84044
C          1.24681        12.11568         0.91728
C          2.42052         9.96635         0.65906
C          2.43786        12.88011         0.77149
C          1.26676        15.05150         0.96148
C          1.24022        16.40684         0.87710
C          2.48197        14.27003         0.94243
C          2.49176        17.22994         1.00492
C          2.44170        18.58589         0.35265
C          3.64267         2.03744        -0.51299
C          3.65502         3.42547         0.14443
C          4.93573         1.32195        -0.20922
C          4.89561         4.16465        -0.27768
C          3.58349         6.43632        -0.26858
C          3.65103         7.72037         0.56144
C          4.89051         5.64680        -0.29961
C          4.97901         8.49187         0.67631
C          3.65587        10.64056         0.46248
C          3.64441        12.14117         0.20984
C          4.87938         9.96624         0.33630
C          4.96208        12.77182         0.66027
C          3.80477        15.01353         1.05641
C          3.72176        16.45524         0.60419
C          4.97008        14.25875         0.45825
C          4.86384        17.11023         0.26080
C          3.57079        19.20583        -0.05259
C          4.86692        18.54218        -0.00729
C          6.15859         2.01536        -0.10801
C          6.18000         3.45135        -0.11747
C          7.41339         1.33701        -0.06694
C          7.39906         4.17575        -0.22633
C          6.15742         6.30825         0.20801
C          6.11325         7.80024        -0.13630
C          7.40857         5.59757        -0.24059
C          7.47239         8.48366         0.09244
C          6.10096        10.66876         0.04608
C          6.14521        12.06004         0.04939
C          7.30476         9.91265        -0.39032
C          7.34891        12.78771        -0.24232
C          6.12189        14.91929         0.14745
C          6.18805        16.40158         0.45768
C          7.34993        14.21221        -0.16355
C          7.27287        17.06695        -0.41938
C          6.05197        19.22982        -0.18369
C          7.32573        18.55643        -0.21343
C          8.63648         2.03632        -0.18145
C          8.63946         3.46823        -0.31700
C          9.87990         1.36182        -0.15026
C          9.85772         4.18896        -0.49794
C          8.60698         6.32596        -0.49822
C          8.59776         7.73239        -0.57642
C          9.84553         5.59978        -0.65135
C          9.75480         8.44853        -1.22645
C          8.56078        10.65813        -0.77616
C          8.55932        12.10616        -0.54750
C          9.83758         9.92157        -0.84904
C          9.79672        12.78794        -0.53384
C          8.57005        14.92618        -0.31897
C          8.58657        16.35619        -0.30385
C          9.80573        14.21218        -0.42169
C          9.79124        17.06034        -0.27071
C          8.53143        19.21366        -0.15368
C          9.79294        18.51093        -0.19494
C         11.10375         2.06386        -0.24927
C         11.10721         3.48721        -0.47502
C         12.32907         1.38852        -0.06334
C         12.33256         4.19798        -0.60587
C         11.08071         6.33159        -0.82065
C         11.05793         7.71100        -1.02921
C         12.33510         5.61566        -0.79065
C         12.29831         8.45911        -1.43225
C         11.03164        10.60886        -0.79856
C         11.03343        12.06480        -0.65069
C         12.30776         9.90051        -0.93688
C         12.23475        12.78653        -0.67866
C         11.03731        14.92222        -0.42646
C         11.03697        16.34931        -0.31209
C         12.26502        14.20669        -0.54760
C         12.26088        17.05595        -0.26480
C         11.00264        19.18670        -0.13769
C         12.25588        18.49425        -0.15991
C         13.55072         2.09427        -0.06706
C         13.56846         3.48578        -0.41027
C         14.76521         1.44758         0.28293
C         14.80221         4.18841        -0.42048
C         13.57212         6.34214        -0.94934
C         13.59148         7.69981        -1.19192
C         14.82651         5.51728        -1.15829
C         14.85195         8.45287        -1.42915
C         13.48665        10.58797        -0.89330
C         13.49051        12.06463        -0.93294
C         14.79776         9.94504        -1.18352
C         14.80299        12.80355        -0.83530
C         13.50966        14.92102        -0.47633
C         13.49796        16.34368        -0.30564
C         14.75422        14.23951        -0.50479
C         14.72402        17.05189        -0.19146
C         13.47255        19.18121        -0.08611
C         14.71368        18.49100        -0.09094
C         15.94174         2.18260         0.42913
C         15.95033         3.57045         0.08034
C         17.17031         1.53870         0.84024
C         17.11998         4.41240         0.50975
C         16.16499         6.26659        -1.04831
C         16.23454         7.75444        -1.47954
C         17.33057         5.63265        -0.35206
C         17.32724         8.51663        -0.72256
C         16.01613        10.64031        -0.69631
C         16.03115        12.03266        -0.52443
C         17.17571         9.84419        -0.36775
C         17.20221        12.77598        -0.17399
C         15.96765        14.92324        -0.29849
C         15.95704        16.34567        -0.16331
C         17.20635        14.19008        -0.17267
C         17.19380        17.05059        -0.06490
C         15.93723        19.17983        -0.00865
C         17.17541        18.49829        -0.00847
C         18.35680         2.22442         0.96288
C         18.40982         3.65686         0.73836
C         19.61259         1.53098         1.22137
C         19.58628         4.35697         0.84469
C         18.56134         6.40243        -0.06982
C         18.68002         7.80362        -0.63984
C         19.66100         5.76592         0.46801
C         19.71161         8.51839         0.19749
C         18.24121        10.53393         0.40770
C         18.37838        12.05791         0.36899
C         19.41632         9.72728         0.72836
C         19.68582        12.79331         0.40238
C         18.43574        14.91050         0.01510
C         18.41160        16.33508        -0.04047
C         19.66112        14.18265         0.22519
C         19.66491        17.10620        -0.11924
C         18.38592        19.21795         0.09304
C         19.63382        18.56639         0.08158
C         20.76840         2.20472         1.38496
C         20.79960         3.70879         1.47538
C         22.08629         4.31941         0.99555
C         20.95441         6.44634         0.53259
C         20.98260         7.84573         0.46625
C         22.14189         5.62341         0.64489
C         22.21205         8.60012         0.54529
C         21.24453        10.85073         0.84608
C         20.99159        12.13136         0.36459
C         22.34842         9.97004         0.56973
C         22.08683        12.85304        -0.28525
C         20.98141        14.90956         0.45436
C         20.98863        16.38662         0.11863
C         22.09185        14.19596        -0.28528
C         22.10008        17.19704         0.61036
C         20.83878        19.25757         0.27968
C         22.04009        18.57120         0.57406
O          2.93926         7.74774         1.82194
O         20.26837        10.29039         1.69141
O         17.15204         5.45715        -1.79726
O          4.95306         4.90837        -1.55379
O          7.59316        10.14898        -1.79570
O         14.20422        12.52359        -2.15030
O          6.43116        16.44203         1.84501
O         20.54268        16.68616        -1.23080
O         17.87445        11.34158         1.57341
O         14.78743         9.40171        -2.56177
O          6.79168        16.84029        -1.78381
H          7.42439        17.26423        -2.40084
O         16.73693         4.95564         1.82322
H         16.56621         4.19602         2.41942
O          3.84194         3.22512         1.57176
H          3.06791         2.72369         1.90565
O         20.72195         4.02604         2.91237
H         19.86478         3.68129         3.24081
O         19.19626         7.69770        -1.99294
H         18.43884         7.43779        -2.57474
O          7.82875         8.50052         1.50000
H          7.05576         8.85047         2.01144
O         16.63183         7.73607        -2.87351
H         15.96875         7.20432        -3.36417
O          9.49764         8.41481        -2.67720
H         10.36513         8.58826        -3.12172
O          2.62566        17.46718         2.45279
H          3.07326        16.66614         2.82539
O          5.32282         8.50696         2.08850
H          4.47008         8.37388         2.57696
O          6.14514         6.13389         1.64748
H          6.86630         6.69508         2.01624
O          4.16021        15.11396         2.49938
H          5.04341        15.62863         2.48367
O         12.21462         8.61568        -2.90564
H         13.06516         9.05184        -3.17655
O         14.73078         5.14909        -2.57318
H         15.58404         4.71182        -2.79946
O          5.08545        12.56733         2.10053
H          4.77159        13.39638         2.55027
O         21.27316        14.83856         1.88071
H         21.26700        13.89183         2.13828
O          5.79870         7.91042        -1.53157
H          6.46198         8.47140        -1.99247
O          3.56578         2.24084        -1.95761
H          3.59843         1.36221        -2.38919
O          3.35585         6.92425        -1.62312
H          3.74811         6.25817        -2.23470
O          3.56694        12.32301        -1.23293
H          2.75228        11.88194        -1.55243
H          0.33326         1.43354         0.39874
H          0.20238         3.88088         0.19295
H          2.41139         0.18559        -0.07049
H          0.16814         5.89571        -0.12466
H          0.20043         8.31821         0.10321
H          0.29253        10.19941         1.00921
H          0.30581        12.61330         1.19078
H          0.30668        14.51479         0.92564
H          0.27041        16.92707         0.84232
H          1.47405        19.10955         0.31129
H          4.95487         0.22146        -0.25941
H          3.52908        20.23402        -0.44537
H          7.42918         0.23850        -0.01100
H          6.03345        20.32712        -0.27857
H          9.89934         0.27217        -0.00082
H          8.55339        20.30918        -0.04432
H         12.32570         0.31168         0.16009
H         11.00939        20.28459        -0.06546
H         14.75789         0.37162         0.51072
H         13.47295        20.27879        -0.01235
H         17.15336         0.45033         1.00132
H         15.93429        20.27813         0.05473
H         19.59709         0.43050         1.24099
H         18.35141        20.31294         0.19735
H         21.70603         1.65962         1.57265
H         23.00476         3.71560         1.04456
H         23.11633         6.06948         0.39536
H         23.14331         8.02099         0.44261
H         23.34179        10.40010         0.37029
H         22.90933        12.27444        -0.72973
H         22.90441        14.77423        -0.74628
H         22.96539        16.68814         1.05801
H         20.81752        20.35468         0.35151
H         22.91581        19.15895         0.88524
