         621
 CSIRO Nanostructure Databank - Neutral Graphene Oxide Data Set
C          6.00126        31.73468        -0.41972
C          5.82110        33.09325        -0.51976
C          8.47115        27.47751        -0.11474
C          8.50775        28.86005        -0.08625
C          7.29013        29.61087        -0.31119
C          8.53845        31.71997        -0.41541
C          7.24781        30.98287        -0.44324
C          8.72324        32.93120        -1.18965
C          6.84868        34.00704        -1.00085
C          8.51268        35.90675        -0.84721
C          7.21970        35.25512        -0.57634
C          8.67480        37.18307        -0.39272
C         10.79430        23.07553         0.43184
C         10.81745        24.44821         0.21389
C          9.61304        25.25813         0.08767
C         10.94197        27.32734         0.19684
C          9.62913        26.63959         0.08415
C         11.03556        28.81907         0.30609
C          9.72671        29.59768         0.49986
C         11.08951        31.69171        -0.40392
C          9.83181        31.06090         0.05332
C         11.08185        33.05407        -0.75446
C          9.83412        33.71699        -1.01921
C         11.04791        35.90043        -1.44889
C          9.74294        35.16496        -1.34180
C         11.02839        37.42038        -1.32311
C         10.01652        37.86320        -0.24977
C         11.08956        40.11086        -0.49208
C          9.94443        39.36610        -0.24838
C         11.08291        41.53009        -0.41610
C         13.12095        18.78222         1.05500
C         13.16440        20.17007         0.99689
C         11.97474        20.92756         0.75014
C         13.29035        22.98526         0.56628
C         12.00204        22.31245         0.59808
C         13.29119        24.39694         0.26012
C         12.10670        25.09005         0.09307
C         13.41647        27.26380        -0.33965
C         12.12221        26.53135        -0.25990
C         13.41585        28.74266        -0.34122
C         12.28802        29.49725        -0.16014
C         13.50979        31.58143        -0.75318
C         12.32689        30.93741        -0.42785
C         13.50682        32.95498        -1.38189
C         12.30083        33.78806        -1.03271
C         13.59670        35.87806        -1.23576
C         12.32149        35.15340        -1.24231
C         13.59773        37.34306        -1.16077
C         12.37899        38.04681        -1.03087
C         13.56973        40.16866        -0.75637
C         12.35998        39.42922        -0.76463
C         13.54254        41.61144        -0.63256
C         12.27029        42.28853        -0.50731
C         13.41974        44.47558        -0.47581
C         12.23714        43.69929        -0.43160
C         13.38706        45.88691        -0.41763
C         15.65695        14.51564         0.68084
C         15.61054        15.85611         0.96628
C         14.24836        16.49088         1.17233
C         15.60549        18.72595         1.65305
C         14.27398        17.98801         1.46283
C         15.62033        20.17182         1.38503
C         14.44241        20.87144         1.10640
C         15.81841        22.91115         0.48501
C         14.47630        22.27838         0.80212
C         15.82684        24.40993         0.66764
C         14.56392        25.14462         0.34321
C         15.93308        27.20760        -0.12915
C         14.64099        26.52705        -0.07462
C         15.89573        28.69249        -0.01289
C         14.72005        29.37326        -0.63796
C         16.07488        31.54616        -0.58251
C         14.78216        30.84408        -0.82101
C         16.12475        32.99064        -0.93486
C         14.83465        33.70576        -1.26655
C         16.09479        35.87213        -1.12763
C         14.78396        35.17934        -1.11883
C         16.12433        37.36560        -1.26136
C         14.82139        38.07706        -1.12321
C         16.04000        40.25538        -0.99479
C         14.79017        39.47362        -0.95806
C         16.00393        41.68917        -0.67233
C         14.73047        42.36448        -0.63692
C         15.87861        44.55836        -0.64274
C         14.69156        43.80228        -0.57716
C         15.84247        45.97320        -0.52502
C         14.57299        46.65360        -0.41676
C         15.72075        48.83119        -0.24313
C         14.53971        48.07380        -0.34359
C         15.71811        50.26588        -0.28823
C         17.97364        10.24090        -0.14761
C         18.07386        11.68620        -0.11413
C         16.89586        12.40152         0.22947
C         18.10697        14.51033         0.36704
C         16.88643        13.78954         0.42759
C         18.07653        15.97130         0.56341
C         16.83610        16.63561         1.05822
C         18.16411        18.64899         1.71904
C         16.86641        17.95937         1.43740
C         18.19268        20.14333         1.86261
C         16.89123        20.90438         1.60834
C         18.22233        22.96895         1.27839
C         17.01392        22.29024         1.17239
C         18.27777        24.40078         0.97260
C         17.14803        25.07885         0.58092
C         18.38346        27.29466         0.69442
C         17.21443        26.50773         0.22487
C         18.39277        28.74178         0.60774
C         17.13858        29.46137         0.26081
C         18.53305        31.56425        -0.18917
C         17.18388        30.88851        -0.14623
C         18.40452        33.06081         0.03063
C         17.29562        33.75777        -0.43964
C         18.27832        35.93624         0.11147
C         17.27764        35.20197        -0.50098
C         18.20770        37.45679         0.25613
C         17.48612        38.04340        -0.96475
C         18.50392        40.30701        -0.32233
C         17.37708        39.55551        -0.89663
C         18.46533        41.72359        -0.35465
C         17.19952        42.38517        -0.55777
C         18.46542        44.60579        -0.70471
C         17.17288        43.84645        -0.75823
C         18.40177        46.13381        -0.75561
C         17.04356        46.73980        -0.42237
C         18.18926        48.86365         0.13768
C         16.96967        48.11102        -0.19832
C         18.15949        50.37304         0.10885
C         16.88960        51.04953        -0.24088
C         18.14792        53.19593        -0.37719
C         16.92496        52.44637        -0.41041
C         18.15300        54.61099        -0.44419
C         20.48459         6.09497        -1.41138
C         20.41729         7.45069        -1.14664
C         19.16936         8.01392        -0.67486
C         20.71593        10.50383        -0.94909
C         18.87340         9.38589        -0.79955
C         20.57040        11.74681        -0.37058
C         19.30931        12.43150        -0.20585
C         20.57419        14.57925         0.18665
C         19.32414        13.83970         0.10851
C         20.64876        15.93417         0.50429
C         19.39044        16.69092         0.64508
C         20.72904        18.76206         1.29731
C         19.46056        17.98586         1.37820
C         20.70125        20.12821         1.54209
C         19.46409        20.86585         1.64584
C         20.72810        23.00478         1.51178
C         19.46372        22.26298         1.53699
C         20.70154        24.44509         1.39316
C         19.51735        25.13453         1.14463
C         20.63217        27.28407         1.81281
C         19.48983        26.58367         1.11787
C         20.61245        28.81957         1.71246
C         19.50063        29.49801         0.98219
C         20.71744        31.65935         0.99090
C         19.58926        30.90753         0.68232
C         20.73389        33.10145         0.81569
C         19.53102        33.77326         0.51852
C         20.69630        36.00670         1.02359
C         19.39703        35.21892         0.72317
C         20.70080        37.48263         0.79520
C         19.56161        38.16236         0.42182
C         20.73605        40.37498         0.64629
C         19.60775        39.61459         0.23739
C         20.79608        41.78162         0.45251
C         19.64632        42.47582        -0.03705
C         20.80321        44.64344         0.20010
C         19.66777        43.90722        -0.16632
C         20.75057        46.09715         0.20971
C         19.55004        46.79583        -0.04582
C         20.67641        48.95689         0.23609
C         19.49337        48.18754         0.10334
C         20.64186        50.39160         0.07921
C         19.44192        51.08388        -0.06103
C         20.62361        53.23133        -0.39662
C         19.40441        52.49916        -0.28500
C         20.58688        54.63341        -0.45839
C         19.36061        55.35998        -0.42309
C         20.59391        57.53636        -0.34817
C         19.39651        56.79360        -0.39813
C         20.65017        58.94141        -0.35800
C         22.98190         3.35633        -2.33896
C         21.77576         3.96903        -2.07536
C         23.01376         6.16130        -1.92291
C         21.68277         5.42395        -1.95180
C         23.04754         7.47100        -1.21188
C         21.73094         8.19539        -0.98953
C         23.10410        10.23215        -0.52469
C         21.87126         9.66048        -0.82588
C         23.11133        11.60487         0.01509
C         21.81278        12.35569         0.14558
C         23.12424        14.56321        -0.07915
C         21.83511        13.83485        -0.03185
C         23.09516        16.05442         0.03082
C         21.87733        16.69148         0.56517
C         23.20775        18.76147         0.93137
C         21.94193        18.05367         0.94406
C         23.27648        20.16185         1.40556
C         21.96257        20.87777         1.70922
C         23.25790        23.04152         1.94082
C         21.94063        22.34298         1.64861
C         23.24693        24.50629         1.59985
C         21.98518        25.17705         1.32198
C         23.22163        27.41423         1.67079
C         21.96314        26.69141         1.37949
C         23.18819        28.79875         1.90902
C         21.90377        29.56134         1.92903
C         23.18458        31.83265         1.68364
C         21.88664        31.05185         1.67189
C         23.20797        33.05941         0.84716
C         21.97027        33.85256         0.84531
C         23.19348        36.09079         0.78971
C         21.94553        35.25518         0.89527
C         23.10545        37.51878         1.28648
C         21.92947        38.20025         1.11741
C         23.15659        40.43798         1.54312
C         21.86476        39.67098         1.28722
C         23.17112        41.86662         1.17360
C         22.02090        42.52122         0.73605
C         23.16546        44.71787         0.93033
C         22.02536        43.97276         0.59177
C         23.14973        46.17810         0.90066
C         21.90993        46.85642         0.49968
C         23.15260        48.92865        -0.02682
C         21.90140        48.25490         0.36853
C         23.11888        50.37531        -0.39097
C         21.94395        51.15028         0.15895
C         23.08945        53.17206        -0.75606
C         21.89708        52.54757        -0.38533
C         23.07511        54.64033        -0.93996
C         21.87720        55.33642        -0.37189
C         23.15787        57.54195        -0.50912
C         21.88793        56.81921        -0.27068
C         23.14537        58.95212        -0.38701
C         21.88941        59.65350        -0.31661
C         23.14350        61.75183        -0.20414
C         21.92268        61.06200        -0.23759
C         24.21738         4.04857        -2.35458
C         25.49175         6.13829        -1.93636
C         24.28978         5.42123        -2.05130
C         25.53292         7.53525        -1.60645
C         24.32432         8.21059        -1.24629
C         25.58205        10.26739        -0.85884
C         24.35586         9.55359        -0.81506
C         25.58045        11.72475        -0.65487
C         24.41771        12.35798         0.04396
C         25.67480        14.62038        -0.02221
C         24.41901        13.84807         0.14960
C         25.66605        15.98063         0.01718
C         24.40694        16.77854         0.03023
C         25.63151        18.90803         0.45625
C         24.41185        18.16592         0.54160
C         25.66695        20.29963         0.63276
C         24.47314        20.98436         1.08150
C         25.66158        23.13778         1.15299
C         24.46738        22.35838         1.30908
C         25.70238        24.49800         1.44866
C         24.44305        25.23218         1.59155
C         25.71079        27.38860         1.47813
C         24.43123        26.66365         1.59535
C         25.73880        28.86473         1.64365
C         24.45610        29.54586         2.02404
C         25.73255        31.68556         1.49333
C         24.45622        31.05575         1.89025
C         25.67745        32.96905         0.95000
C         24.45483        33.43428         0.33364
C         25.68941        36.09255         1.12740
C         24.38499        35.50285         1.56877
C         25.67243        37.46249         1.20251
C         24.41225        38.17951         1.55740
C         25.73411        40.37047         1.21858
C         24.46739        39.69260         1.63657
C         25.76205        41.84234         1.37816
C         24.41182        42.59222         1.47698
C         25.78297        44.80519         1.10167
C         24.40994        44.07539         1.35786
C         25.74522        46.17093         0.56408
C         24.50492        46.93949         0.70686
C         25.58730        48.91594        -0.35638
C         24.44634        48.27168         0.09728
C         25.59747        50.31997        -0.66303
C         24.40144        51.08292        -0.60950
C         25.57207        53.13753        -1.30898
C         24.32961        52.46412        -0.88838
C         25.68234        54.69658        -1.25347
C         24.36192        55.42068        -1.07143
C         25.61225        57.52941        -0.55900
C         24.36093        56.84782        -0.67472
C         25.60428        58.92745        -0.39417
C         24.38921        59.65809        -0.36027
C         24.35770        61.07799        -0.25693
C         26.75196         8.24852        -1.57030
C         28.03135        10.36650        -1.27669
C         26.80261         9.63000        -1.23853
C         28.11834        11.77068        -1.07200
C         26.84516        12.50913        -0.82622
C         28.24441        14.56063        -0.15819
C         26.93496        13.84111        -0.13044
C         28.25297        16.03559         0.14325
C         26.92722        16.73859         0.18130
C         28.11831        18.97075        -0.20661
C         26.84014        18.21112        -0.03906
C         28.09385        20.40785         0.11173
C         26.89744        21.02626         0.44278
C         28.18575        23.08068         1.06062
C         26.88053        22.53486         0.48705
C         28.15856        24.59237         1.09020
C         26.97594        25.21255         1.36946
C         28.26930        27.40531         1.94069
C         26.98477        26.65576         1.72585
C         28.25795        28.90148         1.88722
C         27.04417        29.57040         1.84052
C         28.18407        31.68870         1.42807
C         26.97054        31.00025         1.66335
C         28.15988        33.15650         1.23412
C         26.84944        33.85509         1.05087
C         28.04962        35.97359         0.48402
C         26.86365        35.32623         0.77172
C         28.17560        37.42738         0.74045
C         26.93600        38.20521         1.13341
C         28.16064        40.35978         0.74407
C         26.90038        39.67844         0.97476
C         28.14979        41.81185         0.66337
C         26.95384        42.57947         0.93313
C         28.10289        44.64779         0.22860
C         26.96343        43.97812         0.78466
C         28.10477        46.01673        -0.09549
C         26.86479        46.74594        -0.02035
C         28.16168        48.89501        -0.69038
C         26.81807        48.12841        -0.53596
C         28.13557        50.36339        -0.67696
C         26.86432        50.99621        -0.86036
C         28.51350        53.40003        -0.71757
C         26.78196        52.33421        -1.28360
C         28.13526        54.72459        -0.38068
C         26.92408        55.38153        -0.75207
C         26.82492        56.76205        -0.51266
C         29.29875        12.50582        -1.13609
C         30.55773        14.76473        -1.15172
C         29.24756        14.01738        -1.16548
C         30.63213        16.11081        -0.83106
C         29.57683        16.79393         0.02231
C         30.53216        19.00250        -0.62139
C         29.42082        18.27037        -0.30755
C         30.51677        20.46335        -0.53754
C         29.33143        21.15176        -0.02401
C         30.57044        23.27405         0.18878
C         29.36890        22.49699         0.31968
C         30.64469        24.59480         0.59507
C         29.38870        25.42064         0.76598
C         30.88377        27.38754         1.63089
C         29.56029        26.65649         1.66013
C         30.94301        28.88150         1.93560
C         29.54625        29.65434         2.02741
C         30.52978        32.00931         1.79575
C         29.41434        31.10675         1.73128
C         30.64011        33.18424         1.07368
C         29.37031        33.78426         0.62256
C         30.58653        35.96136        -0.04335
C         29.28972        35.21518         0.15606
C         30.60947        37.47354        -0.03789
C         29.25938        38.22040         0.02017
C         30.62040        40.30168         0.51361
C         29.34843        39.64782         0.50970
C         30.60408        41.77348         0.53381
C         29.32231        42.45453         0.29918
C         30.61193        44.59716        -0.40696
C         29.30289        43.86497        -0.08766
C         30.59805        46.05037        -0.22778
C         29.35724        46.73249        -0.29070
C         30.56883        48.88581        -0.09884
C         29.37201        48.15432        -0.34521
C         30.50534        50.31165        -0.04859
C         29.34340        51.06955        -0.32804
C         29.38164        52.50046        -0.09865
C         31.77639        16.89784        -1.12737
C         32.86658        19.07152        -1.41917
C         31.77937        18.32167        -1.00688
C         32.81293        20.56575        -1.56318
C         31.65633        21.17838        -0.80596
C         33.01454        23.32070        -0.62102
C         31.69767        22.62520        -0.53510
C         33.18689        24.58539         0.15973
C         31.95756        25.27802         0.70924
C         33.20215        27.42698         0.62914
C         32.03002        26.74240         0.92152
C         33.29584        28.84388         0.96181
C         32.27008        29.52983         1.62206
C         33.46811        31.72400         1.32839
C         32.48560        30.92893         1.89005
C         33.26172        33.09019         0.75582
C         31.91550        33.74581         0.55550
C         33.16422        35.99508         0.17850
C         31.89083        35.19198         0.09364
C         33.07907        37.46677         0.34229
C         31.88951        38.17005         0.30821
C         33.09788        40.36555         0.54500
C         31.85311        39.61841         0.48719
C         33.13766        41.73270         0.32497
C         31.89424        42.51948         0.33668
C         33.13945        44.64340         0.00206
C         31.93565        43.83525        -0.43383
C         33.05299        46.03870         0.11645
C         31.82220        46.76399        -0.01105
C         31.77809        48.17009         0.10222
C         34.14528        21.22144        -1.29781
C         35.46187        23.29083        -1.01757
C         34.24926        22.55993        -0.96038
C         35.54506        24.68965        -0.74076
C         34.38632        25.38209        -0.15346
C         35.57466        27.49649        -0.35275
C         34.38036        26.73305         0.09996
C         35.64033        28.96019        -0.11053
C         34.58706        29.53432         0.76609
C         35.79588        31.80955         0.34477
C         34.69385        31.04838         0.95319
C         35.74179        33.20624         0.33939
C         34.49658        33.91082         0.57745
C         35.65908        36.05573         0.27811
C         34.44561        35.28936         0.47707
C         35.62661        37.44816         0.34138
C         34.35749        38.14527         0.67383
C         35.70538        40.38923         0.78393
C         34.36464        39.64119         0.81991
C         35.59103        41.81903         0.32474
C         34.38795        42.48530         0.22863
C         34.33373        43.92603         0.15930
C         36.72790        25.38064        -0.97273
C         37.98639        27.61162        -1.05110
C         36.90112        26.76969        -0.43451
C         38.03540        28.99306        -0.86170
C         36.91538        29.69762        -0.28429
C         38.09801        31.84886        -0.54569
C         36.94461        31.09464        -0.13408
C         38.08542        33.25498        -0.47721
C         36.90522        33.95497        -0.05981
C         38.04252        36.11956        -0.42269
C         36.87512        35.36098        -0.04803
C         37.98546        37.51521        -0.40010
C         36.80652        38.22059         0.01794
C         36.78947        39.61197         0.07525
C         39.19324        29.76528        -1.23474
C         40.39731        31.92691        -1.44941
C         39.23934        31.14442        -1.07454
C         40.40314        33.28619        -1.34575
C         39.24432        34.01646        -0.88097
C         39.21696        35.40481        -0.83255
O         19.76812        35.63281         2.08690
O         32.87971        24.48698         1.58030
O         34.29292        38.78253         2.01589
O         22.05243        55.96530         0.94720
O         14.88920        29.90256        -1.98602
O         22.21877        40.14848         2.62421
O         22.00141        26.04188         0.08839
O         22.87649        49.41989        -1.44869
O         23.47381        55.17823        -2.23004
O         11.25890        27.95698         1.48941
O         10.29865        35.48714        -2.66025
O         29.16123        34.10545        -0.79657
O         22.81465        20.33649         2.79747
O         25.70539        28.27972         0.29066
O         35.19906        28.42119        -1.41961
O         24.60430        12.99377         1.34121
O         27.88269        13.75846         0.99154
O         24.55328        38.87952         2.83965
O         27.52955        33.77810         2.38793
O         30.45913        26.53998         2.77404
O         17.41387        20.66319         2.97245
O          7.67560        33.40387        -1.97697
O         29.74426        44.12531        -1.48994
O         27.87404        52.88797        -1.89890
O         18.93956        17.92867         2.75103
O         24.25262        34.91453         2.62019
O          9.06897        31.92750         0.94540
O         30.64256        36.72229        -1.29313
O         17.97750        44.09722        -1.99813
O         27.24849        18.63276        -1.38204
O         18.05382        49.64867         1.38487
O         30.34667        29.26275         3.19162
O         16.85116        26.74361        -1.19955
O         23.83729        46.84901         2.00043
O         27.94873        37.78530         2.12947
O         16.89718        40.04384        -2.18804
O         25.13876        42.17562         2.66286
O         14.78678        18.30556         2.79621
O         12.63260        26.79179        -1.59775
O         15.77198        33.28462        -2.33258
O         27.43755        48.30176        -1.82978
O         32.08040        23.43459        -1.74961
O         16.27593        36.52156        -2.44419
O         20.93655        29.35652         3.03831
O         27.62234        16.35965         1.42528
O         22.47814        14.13661        -1.33357
O         25.65633        54.01120        -2.50816
O         27.51552        26.86782         3.08486
O         25.88864        12.46045        -1.91916
O         22.44264         7.49775         0.11791
O         22.22369         6.16298        -3.13607
O         15.09256        24.93095         1.80903
O         25.17415        44.69349         2.41779
O         32.68080        35.43387        -1.09854
O         31.54218        31.61489         2.65216
O         24.56653        30.40914         3.19370
O         31.28309        42.49914         1.66402
O         22.30864        31.84339         2.83280
O         32.49778        32.91022        -0.51484
O         22.39717        11.73872         1.31455
O         18.61918        16.73937        -0.60047
O         35.16237        30.09992         1.97915
O         16.12531        29.20183         1.33738
O         23.60935        16.67900        -1.20290
O         19.69474        10.02233        -1.76322
O          9.44121        29.64344         1.91270
H          9.87485        28.85597         2.31958
O         37.28742        26.59978         0.98593
H         38.11936        26.08146         1.01128
O         28.27902        22.62981         2.43660
H         29.01022        23.11153         2.87733
O         17.41585        37.74938         1.43072
H         17.88031        37.36676         2.20718
O         30.16761        16.77420         1.35727
H         29.42342        16.76840         2.00312
O         32.52926        20.85531        -2.98585
H         32.34525        21.82442        -3.03207
O         10.60318        37.99240        -2.57646
H         10.29447        37.24430        -3.14373
O         13.43801        16.24424         0.01145
H         13.97834        16.39753        -0.79037
O         10.56786        37.42918         1.03621
H          9.96511        37.73706         1.74513
O         13.30557        32.68295        -2.80407
H         14.18975        32.45535        -3.17585
O         20.48052        26.91198         3.20614
H         20.65385        27.72184         3.74665
O         29.13639        26.00420        -0.55776
H         28.90378        25.27661        -1.17479
O         24.66431        34.15686        -0.78249
H         23.83915        34.57300        -1.12132
O         19.02637        31.40494        -1.56155
H         18.35358        31.77979        -2.17069
O         23.51389        36.29979        -0.63395
H         22.79177        36.84510        -1.01419
O         16.01925        22.70644        -0.95434
H         15.92502        21.75010        -1.14667
O         23.44539        22.94747         3.38869
H         23.37406        21.98864         3.61979
O         28.77007        38.36374        -1.34281
H         29.26230        37.70450        -1.89380
O         18.38282        37.76338        -2.05779
H         17.95607        38.10147        -2.87552
O         18.62093        46.52496        -2.14848
H         18.27100        45.78482        -2.70149
O         28.64145        14.38954        -2.46253
H         29.16224        13.96471        -3.17657
O         26.83836        22.98499        -0.90266
H         26.08381        22.54372        -1.34641
O         36.19363        40.49830         2.16263
H         35.76396        39.76201         2.66234
O         22.25521        51.28794         1.59213
H         21.51306        51.76863         2.01723
O         32.20015        43.46239        -1.81171
H         31.33863        43.48750        -2.29066
H          5.11443        31.13998        -0.14382
H          4.83638        33.50547        -0.24725
H          7.51766        26.97984        -0.35592
H          6.34956        29.03904        -0.37265
H          6.56571        35.77829         0.13882
H          7.80262        37.70648         0.03470
H          9.83057        22.54930         0.50702
H          8.64755        24.73288         0.01955
H          9.00114        39.87354         0.00846
H         10.12730        42.05086        -0.25315
H         12.19983        18.25294         0.76918
H         11.01410        20.39323         0.70278
H         11.26573        44.20697        -0.33663
H         12.41526        46.39829        -0.35076
H         14.71257        13.95217         0.63770
H         13.73314        15.98310         2.02974
H         13.56482        48.58365        -0.35536
H         14.75204        50.77165        -0.44061
H         17.14156         9.79409         0.41843
H         15.94900        11.84753         0.31446
H         15.98296        52.98997        -0.58006
H         17.19167        55.14541        -0.47617
H         19.56476         5.49424        -1.33511
H         18.43138         7.32729        -0.23220
H         18.44075        57.33938        -0.41917
H         19.71344        59.51907        -0.38027
H         23.00110         2.26547        -2.47691
H         20.87036         3.36401        -1.92223
H         23.13642        62.84869        -0.13273
H         20.97802        61.62275        -0.19263
H         25.14587         3.48456        -2.52196
H         26.44246         5.61757        -2.12677
H         26.55884        59.46709        -0.30601
H         25.30320        61.63796        -0.22542
H         27.68391         7.72679        -1.83438
H         28.95239         9.81619        -1.52187
H         28.82569        55.30284         0.25223
H         27.74958        57.30084        -0.25437
H         30.25414        11.99495        -1.33125
H         31.40868        14.30610        -1.68307
H         31.42587        50.85509         0.21223
H         30.10782        52.87727         0.63599
H         32.64903        16.41239        -1.59224
H         33.77576        18.55701        -1.76745
H         33.96564        46.60805         0.35004
H         32.70750        48.72584         0.29234
H         35.05263        20.67261        -1.59438
H         36.37307        22.77201        -1.35138
H         36.52872        42.39471         0.28872
H         35.27146        44.47940         0.32260
H         37.59654        24.84789        -1.39015
H         38.85676        27.10110        -1.49286
H         38.87341        38.09958        -0.68391
H         37.71043        40.15920        -0.17871
H         40.06104        29.23940        -1.66091
H         41.28424        31.39810        -1.82867
H         41.29541        33.85825        -1.64033
H         40.10579        35.97762        -1.13738
