         228
 CSIRO Nanostructure Databank - Neutral Graphene Oxide Data Set
C        -11.11477         0.64896        -0.52535
C         -9.88664         1.39887        -0.40899
C         -8.65829         0.66322        -0.21666
C         -7.42128         1.38545        -0.06344
C         -6.21393         0.69189         0.32500
C         -5.04373         1.38065         0.60028
C         -3.82135         0.64510         1.02766
C         -2.50189         1.36507         0.99420
C         -1.31889         0.66158         0.43726
C         -0.20376         1.45386         0.05177
C          1.03506         0.79021        -0.42691
C          1.74456         1.83358        -1.23909
C          3.81289         0.41837        -1.70940
C          4.85339         1.34667        -1.34520
C          6.08533         0.77666        -0.84388
C          7.45022         1.53634        -0.81497
C          8.56351         0.77254        -0.09462
C          9.72022         1.48571         0.41006
C         10.89915         0.73371         0.77112
C         -9.85505         2.78324        -0.52571
C         -8.61406         3.50972        -0.54633
C         -7.38041         2.78296        -0.26118
C         -6.15352         3.50317        -0.12081
C         -4.96860         2.81740         0.38107
C         -3.79232         3.52913         0.58043
C         -2.51806         2.86145         0.92759
C         -1.25092         3.57186         0.64009
C         -0.10133         2.87141         0.28123
C          1.19093         3.57569         0.16798
C          2.28011         2.97530        -0.44308
C          3.58390         3.54648        -0.71416
C          4.57300         2.78670        -1.35658
C          6.49083         3.90575        -0.88918
C          7.43731         3.00920        -0.38730
C          8.48824         3.61311         0.36353
C          9.65717         2.84260         0.68147
C         -8.57699         4.86004        -0.83191
C         -7.27073         5.53714        -1.11796
C         -6.10460         4.88796        -0.41410
C         -4.92731         5.64432        -0.21606
C         -3.63469         4.90826        -0.00992
C         -2.55951         5.73681         0.67084
C         -1.25856         5.00808         0.92470
C          0.04927         5.73930         0.94591
C          1.29901         4.98454         0.60745
C          2.56335         5.72479         0.23554
C          3.77577         4.99869        -0.29333
C          4.96673         5.89716        -0.77252
C          6.28761         5.21296        -0.44524
C          7.32304         5.79350         0.32791
C          8.43254         4.99186         0.67098
C         -7.26778         7.03662        -1.01187
C         -6.12525         7.73924        -0.74206
C         -4.90403         7.04860        -0.34059
C         -3.71728         7.80586        -0.03922
C         -2.56097         7.19375         0.42534
C         -1.34744         7.98494         0.69884
C          0.03100         7.23619         0.84190
C          1.21510         7.92448         0.37183
C          2.41048         7.19135        -0.20633
C          3.70242         7.94083         0.01264
C          4.90067         7.27650        -0.12352
C          6.11938         7.93232         0.32434
C          7.26135         7.20309         0.60748
C         -6.06164         9.18494        -0.95165
C         -4.96189         9.90740        -0.67201
C         -3.79814         9.31746         0.07582
C         -2.47393         9.98564        -0.19680
C         -1.29595         9.37742         0.18841
C         -0.03037        10.04095         0.19251
C          1.19041         9.34366         0.28686
C          2.45163        10.04334         0.28703
C          3.65703         9.36027         0.30529
C          4.90487        10.04498         0.53715
C          6.07382         9.35010         0.59722
C        -11.12775        -0.71786        -0.52169
C         -9.90791        -1.47784        -0.40369
C         -8.69712        -0.74624        -0.24779
C         -7.42668        -1.48427        -0.20724
C         -6.28493        -0.78615         0.45952
C         -5.06482        -1.59795         0.77815
C         -3.78458        -0.85692         1.05848
C         -2.42565        -1.56823         0.94036
C         -1.37366        -0.71760         0.20843
C         -0.19043        -1.41297        -0.34570
C          1.12853        -0.69515        -0.46999
C          2.33899        -1.48041        -0.95698
C          3.64962        -0.76892        -0.98687
C          4.87441        -1.39954        -0.59922
C          6.09218        -0.61784        -0.63003
C          7.28350        -1.33230        -0.11566
C          8.55278        -0.60322         0.02123
C          9.73231        -1.36749         0.38342
C         10.92099        -0.62770         0.72180
C         -9.91694        -2.89582        -0.38828
C         -8.75242        -3.68059        -0.23656
C         -7.44538        -2.99126        -0.19756
C         -6.25173        -3.74642         0.22677
C         -5.02294        -3.04598         0.45044
C         -3.80518        -3.71614         0.46172
C         -2.54546        -3.00263         0.43008
C         -1.40538        -3.64446         0.01653
C         -0.18167        -2.90335        -0.36576
C          1.11254        -3.60923        -0.01025
C          2.36701        -2.89280        -0.48321
C          3.65560        -3.44661         0.12455
C          4.88406        -2.80252        -0.42828
C          6.14357        -3.57709        -0.67215
C          7.30995        -2.83310        -0.05677
C          8.60157        -3.55630         0.04691
C          9.75724        -2.76185         0.33326
C         -8.76346        -5.08559        -0.12539
C         -7.56856        -5.84327         0.00803
C         -6.30872        -5.15507         0.17598
C         -5.09771        -5.91293         0.21405
C         -3.81667        -5.19405         0.37726
C         -2.55543        -5.90861         0.00564
C         -1.38032        -5.07273        -0.35676
C         -0.09084        -5.79441        -0.62281
C          1.23580        -5.04738        -0.61009
C          2.39347        -5.77159         0.05254
C          3.66800        -4.98497         0.21310
C          4.92350        -5.75186        -0.01773
C          6.11866        -5.03091        -0.26697
C          7.38633        -5.71949        -0.18086
C          8.60661        -4.93649        -0.04575
C         -7.55989        -7.26798         0.00173
C         -6.36201        -7.99686         0.00068
C         -5.11532        -7.29306         0.03670
C         -3.88675        -8.04168        -0.34247
C         -2.60787        -7.31049        -0.53357
C         -1.31660        -8.08638        -0.56460
C         -0.04372        -7.30496        -0.55509
C          1.18040        -7.94793         0.01276
C          2.45593        -7.23020        -0.03864
C          3.67902        -7.91161         0.51738
C          4.89766        -7.14907         0.01372
C          6.11987        -7.87592        -0.48076
C          7.38593        -7.10695        -0.17716
C         -6.30372        -9.44682        -0.03076
C         -5.12824       -10.15308        -0.05556
C         -3.83598        -9.51299        -0.16680
C         -2.62711       -10.18158        -0.10161
C         -1.32821        -9.52807        -0.16974
C         -0.12591       -10.17880        -0.01394
C          1.16342        -9.45033         0.19793
C          2.50144       -10.09531         0.09112
C          3.66863        -9.39242         0.17979
C          4.98045       -10.02934         0.10080
C          6.12087        -9.33572        -0.10067
O          1.63028         0.05291         0.69832
O         -0.67665         7.84102         1.97407
O          0.99994        -8.54933         1.36378
O         -2.19000         5.35395         2.01589
O         -1.90020        -1.70938         2.28050
H         -2.29488        -0.98418         2.82347
O          6.96431        -2.09128         1.14640
O         -0.91947        -5.32196        -1.72866
O         -3.44689        -7.55137        -1.69183
O          0.92685         5.24204         2.00548
O          0.99974        -3.67980         1.41607
H          1.89792        -3.64382         1.82916
O          3.59648        -2.95871         1.51193
H          4.49627        -3.01538         1.90119
O         -7.02078         5.28164        -2.57225
H         -6.24721         5.82945        -2.82761
O          5.64341         3.49202        -1.93260
O          4.83075         6.11085        -2.20242
H          5.09931         5.27081        -2.64290
O          3.14335         0.55299        -2.87273
H          3.28196         1.43591        -3.27250
O          7.85971         1.53869        -2.21995
H          7.23511         2.12811        -2.69751
O         -2.36054         2.14749         2.21754
O         -3.08616         4.68217        -1.36917
H         -3.78379         4.24097        -1.90051
O          6.06500        -7.88579        -1.96602
H          6.10060        -6.95041        -2.26192
O         -3.91666        -0.10157         2.29652
O          6.39168        -3.57729        -2.12834
H          5.54385        -3.77605        -2.58017
O          1.65355        -4.98291        -1.98565
H          0.86745        -4.73076        -2.52296
O          2.89686        -5.36640         1.40346
O         -0.52383        -7.90670        -1.79456
O         -4.07812         9.59414         1.49581
H         -3.36459         9.17787         2.02672
O          3.68860        -7.86236         1.97772
H          3.37630        -6.96191         2.23598
O         -7.11996        -2.20690        -1.43829
O          2.16243         7.10718        -1.65203
H          3.02756         6.90821        -2.09054
O          1.43456         2.03730        -2.40964
O         -0.37991        -2.18750        -1.61567
O          2.27307        -2.58462        -1.90483
O         -2.92602        -5.82273         1.40597
O          3.62770         5.30293         1.13857
O         -6.07506        -1.31214         1.81067
H         11.83338        -1.18236         0.98507
H         11.78998         1.29301         1.09271
H         10.51204         3.34605         1.15611
H          9.27499         5.44730         1.21148
H          8.13284         7.70034         1.05740
H          7.01396         9.85989         0.85364
H          4.88436        11.12743         0.72928
H          2.44508        11.13947         0.37980
H         -0.00602        11.12606         0.01341
H         -2.46459        11.03814        -0.51941
H         -4.94182        10.98840        -0.87714
H         -6.93559         9.66489        -1.41844
H         -8.16527         7.57372        -1.35652
H         -9.51177         5.40613        -1.03015
H        -10.79132         3.33651        -0.69454
H        -12.05536         1.20742        -0.64144
H        -12.07870        -1.26072        -0.62509
H        -10.88784        -3.40929        -0.46379
H         -9.72509        -5.61778        -0.18502
H         -8.51853        -7.80483        -0.06198
H         -7.25583        -9.99710         0.01055
H         -5.16072       -11.25240        -0.01365
H         -2.63607       -11.27143         0.05916
H         -0.11887       -11.26966         0.14179
H          2.53283       -11.17554        -0.12406
H          5.02668       -11.12103         0.24197
H          7.08339        -9.86835        -0.14333
H          8.34245        -7.65261        -0.16566
H          9.55810        -5.48206         0.04746
H         10.71007        -3.27725         0.53092
