         620
 CSIRO Nanostructure Databank - Neutral Graphene Oxide Data Set
C         23.05440        27.30207        -1.05014
C         23.04762        28.68276        -0.89668
C         23.03913        31.59994        -0.69771
C         23.04019        32.98061        -0.60618
C         23.06099        35.89971        -0.68840
C         23.07817        37.28644        -0.82540
C         23.07290        40.25570        -1.16037
C         23.11892        41.58576        -1.37472
C         23.08021        44.56718        -0.93071
C         23.04868        45.78059        -0.31872
C         25.37160        24.49841        -1.76164
C         24.23983        25.17831        -1.47262
C         25.48656        27.32874        -1.31438
C         24.25602        26.61088        -1.27353
C         25.48465        28.74095        -1.11527
C         24.24507        29.42702        -0.93257
C         25.47899        31.57799        -0.75610
C         24.24352        30.86900        -0.79441
C         25.47757        32.99838        -0.60958
C         24.24795        33.71349        -0.57416
C         25.49751        35.86802        -0.47883
C         24.25214        35.16427        -0.57067
C         25.51719        37.30373        -0.67507
C         24.28557        37.99227        -0.88872
C         25.62360        40.17553        -1.25818
C         24.29011        39.42616        -1.26643
C         25.63282        41.64493        -1.14952
C         24.38666        42.33207        -1.48470
C         25.57632        44.47850        -0.62600
C         24.35294        43.89141        -1.18772
C         25.49791        45.82570        -0.16009
C         24.26566        46.47263         0.01320
C         25.32154        48.49906         0.89600
C         24.20176        47.78561         0.60356
C         27.97714        22.93751        -1.39380
C         27.95810        24.37658        -1.71784
C         26.66827        25.18529        -1.86685
C         27.93115        27.34682        -1.50404
C         26.72441        26.64545        -1.56198
C         27.95598        28.75796        -1.24608
C         26.72397        29.45845        -1.08706
C         27.95198        31.57949        -0.74651
C         26.72139        30.87240        -0.87365
C         27.93802        32.96781        -0.44331
C         26.71950        33.69962        -0.43283
C         27.91227        35.84224         0.08648
C         26.68805        35.12242        -0.26352
C         27.95759        37.32765        -0.20095
C         26.75202        38.02603        -0.68176
C         28.02083        40.16279        -0.66399
C         26.82778        39.42579        -0.86890
C         28.02733        41.58123        -0.57328
C         26.79889        42.33226        -0.78762
C         28.00613        44.42322        -0.11795
C         26.79059        43.75958        -0.55892
C         28.01018        45.80619         0.20049
C         26.75209        46.56905         0.03561
C         27.86783        48.65788         1.08433
C         26.64783        48.00732         0.50067
C         27.96914        50.12023         0.94397
C         30.38780        22.94870        -0.84027
C         29.10342        22.29633        -0.98203
C         30.37736        24.43275        -0.84754
C         29.13451        25.17645        -1.25632
C         30.45823        27.33317        -1.27098
C         29.23064        26.60792        -1.76869
C         30.45802        28.75929        -1.23368
C         29.19824        29.47775        -1.15106
C         30.44862        31.58358        -0.75175
C         29.20313        30.87067        -0.87973
C         30.49852        32.95986        -0.38080
C         29.20805        33.61625        -0.04789
C         30.48469        35.83735         0.11916
C         29.20650        35.10228         0.22209
C         30.52184        37.18930        -0.11768
C         29.28639        37.92306        -0.49514
C         30.52791        40.14102        -0.29065
C         29.30078        39.43455        -0.64546
C         30.47150        41.53823        -0.10177
C         29.23666        42.26578        -0.25831
C         30.43371        44.37169         0.29761
C         29.22675        43.68377        -0.02873
C         30.40566        45.74707         0.64227
C         29.18891        46.45484         0.65115
C         30.41317        48.64866         1.22048
C         29.15808        47.86899         1.14547
C         30.41036        50.04486         1.22955
C         29.15804        50.75727         1.03359
C         32.85154        20.18786        -0.23018
C         31.66736        20.82319        -0.50307
C         32.87968        22.96648        -0.69257
C         31.58220        22.24814        -0.68497
C         32.90729        24.46455        -0.77863
C         31.63023        25.19270        -0.87374
C         32.95793        27.25226        -1.12106
C         31.64306        26.57475        -1.03820
C         32.95329        28.76165        -1.27119
C         31.67327        29.48114        -1.16449
C         32.89948        31.62719        -0.93097
C         31.68203        30.89301        -0.94118
C         32.94640        33.00228        -0.59807
C         31.71232        33.65559        -0.25325
C         33.02856        35.80946         0.23912
C         31.72259        35.02210         0.44692
C         32.99438        37.26558        -0.00619
C         31.76386        37.94286        -0.13815
C         32.96077        40.06764        -0.01231
C         31.74395        39.37735        -0.17513
C         32.91373        41.48892         0.35965
C         31.67031        42.25732         0.22741
C         32.94079        44.37863         0.45483
C         31.68291        43.64799         0.35318
C         32.95165        45.80113         0.69092
C         31.66624        46.41148         1.06703
C         32.95311        48.62535         1.24089
C         31.67712        47.90054         1.35889
C         32.92434        50.05127         1.70026
C         31.64275        50.78427         1.37373
C         32.88868        52.87738         1.59059
C         31.68689        52.18136         1.43380
C         35.43060        18.73972         0.25474
C         35.36843        20.16709         0.15724
C         34.10270        20.88990        -0.06578
C         35.30738        23.05404        -0.09759
C         34.09656        22.27437        -0.21013
C         35.34648        24.42099        -0.20867
C         34.05891        25.19857        -0.11622
C         35.31516        27.37073        -0.26457
C         34.16807        26.63958        -0.56358
C         35.33548        28.83435        -0.47579
C         34.19400        29.46543        -0.93150
C         35.43998        31.65383        -1.33899
C         34.15471        30.91082        -1.22709
C         35.42543        33.10325        -1.03386
C         34.21878        33.69613        -0.60201
C         35.49838        35.88245        -0.54303
C         34.30048        35.09994        -0.17772
C         35.47434        37.28488        -0.38411
C         34.22355        37.96451        -0.14371
C         35.42992        40.10991        -0.25608
C         34.20544        39.38732        -0.10157
C         35.36691        41.57825        -0.28065
C         34.21345        42.25551         0.37314
C         35.42091        44.44935         0.42214
C         34.15285        43.71945         0.33735
C         35.40613        45.91444         0.43689
C         34.13912        46.55057         0.67333
C         35.39112        48.72114         0.81907
C         34.13733        47.98229         0.93098
C         35.38232        50.13429         1.05732
C         34.17411        50.81626         1.36494
C         35.39758        52.94487         1.57523
C         34.14825        52.21766         1.52131
C         35.43255        54.31131         1.96365
C         37.85584        18.75249         0.66807
C         36.62208        18.08502         0.56094
C         37.90467        20.19325         0.23003
C         36.55864        20.87510         0.28772
C         37.77298        23.10289         0.58547
C         36.51777        22.33734         0.36056
C         37.85137        24.52746         0.24357
C         36.64540        25.18560        -0.38482
C         37.62334        27.18589         0.67180
C         36.50728        26.61786         0.08942
C         37.66580        29.24583         0.40728
C         36.54803        29.65091        -0.33377
C         37.87314        31.63614        -0.86399
C         36.67103        30.93535        -0.93520
C         37.89801        33.00331        -1.49989
C         36.65343        33.79235        -1.09852
C         37.91073        35.94875        -1.07684
C         36.69847        35.21109        -0.91124
C         37.89954        37.34915        -0.90160
C         36.67727        38.02925        -0.58290
C         37.86385        40.22962        -0.72929
C         36.64637        39.45971        -0.50973
C         37.85956        41.61283        -0.74258
C         36.61123        42.36046        -0.55429
C         37.84646        44.58175        -0.35732
C         36.70288        43.74716        -0.00095
C         37.81682        45.93677        -0.09940
C         36.59978        46.63119         0.27305
C         37.77805        48.85588         0.19895
C         36.59094        48.08038         0.41877
C         37.77991        50.22620         0.50118
C         36.59901        50.87599         0.95110
C         37.85543        52.98582         1.40126
C         36.61223        52.27381         1.29709
C         37.86663        54.33681         1.84718
C         36.62576        54.97828         2.11370
C         40.24721        16.04875         1.70484
C         39.10379        16.68436         1.29338
C         40.29153        18.82912         1.15709
C         39.08112        18.09301         1.02747
C         40.29627        20.28208         1.08816
C         39.05406        20.98840         0.82302
C         40.16565        23.16568         1.27867
C         39.02309        22.35746         0.82970
C         40.22497        24.60541         0.96280
C         39.01087        25.24909         0.53374
C         40.13538        27.49428         0.72995
C         38.96473        26.68900         0.59280
C         40.16121        28.94664         0.54237
C         38.98427        29.72043         0.20732
C         40.29982        31.72334        -0.37430
C         39.06332        31.02054        -0.38286
C         40.33601        33.12121        -0.78562
C         39.17254        33.76564        -1.23349
C         40.44205        35.97299        -1.50938
C         39.11741        35.21217        -1.67796
C         40.39749        37.43581        -1.21808
C         39.11178        38.13436        -1.01418
C         40.35698        40.28709        -0.95778
C         39.11377        39.51918        -0.91696
C         40.35929        41.69535        -0.99717
C         39.06770        42.40007        -1.05061
C         40.33817        44.61850        -0.77966
C         39.04459        43.91633        -0.93719
C         40.32962        46.00419        -0.50934
C         39.01686        46.72006        -0.48373
C         40.36305        48.92295        -0.49905
C         38.98663        48.21321        -0.40284
C         40.31234        50.37287        -0.02709
C         39.01264        51.03849         0.35578
C         40.30684        53.01889         1.15679
C         39.07733        52.34992         1.03401
C         40.33244        54.36316         1.66344
C         39.12072        55.02642         1.99527
C         40.36017        57.03017         2.62802
C         39.16802        56.36928         2.47963
C         42.64631        16.13527         2.32132
C         41.46647        16.77128         1.86165
C         42.72646        18.87513         1.68322
C         41.49669        18.16399         1.55559
C         42.80018        20.29365         1.17969
C         41.47343        20.98575         1.28499
C         42.71311        23.21963         1.45341
C         41.47243        22.43044         1.50406
C         42.65447        24.62371         1.37388
C         41.39947        25.33959         1.11886
C         42.57815        27.52860         1.05003
C         41.38165        26.79118         0.92994
C         42.61818        28.93903         0.83079
C         41.40699        29.64064         0.50064
C         42.65714        31.79775         0.23947
C         41.45493        31.05290         0.11952
C         42.72320        33.17060        -0.16067
C         41.58849        33.81510        -0.68492
C         42.72040        35.99648        -0.34850
C         41.75792        35.20583        -1.27677
C         42.81155        37.47801        -0.63054
C         41.62879        38.16636        -0.83605
C         42.81805        40.31724        -0.81582
C         41.59905        39.59320        -0.87238
C         42.79259        41.73100        -0.93987
C         41.57407        42.44197        -0.99427
C         42.76605        44.63730        -0.75954
C         41.55976        43.90539        -0.88736
C         42.76949        46.01874        -0.41672
C         41.52961        46.69577        -0.26797
C         42.79419        48.86003         0.12280
C         41.46982        48.13081         0.22276
C         42.79680        50.27019         0.32058
C         41.57088        51.00590         0.41311
C         42.79810        53.03513         1.03554
C         41.55698        52.34426         0.85498
C         42.81304        54.41191         1.47695
C         41.58004        55.05182         1.81114
C         42.81984        57.07700         2.44585
C         41.58874        56.39105         2.29578
C         43.81657        16.84849         2.47293
C         45.13508        18.98596         2.26985
C         43.88380        18.23160         2.13843
C         45.13968        20.41581         2.08275
C         43.95495        21.09998         1.73079
C         45.15279        23.26629         1.87614
C         43.94497        22.51708         1.66824
C         45.09261        24.69920         1.74930
C         43.87288        25.35657         1.50559
C         45.10584        27.60241         1.51338
C         43.80182        26.83380         1.51121
C         45.10550        29.01842         1.08971
C         43.86738        29.65878         0.90857
C         45.19387        31.85613         0.69506
C         43.84045        31.12713         0.79462
C         45.19947        33.18425         0.07282
C         44.01576        33.87399        -0.16292
C         45.24120        36.02472        -0.36451
C         44.05635        35.30170        -0.36070
C         45.27623        37.47258        -0.37745
C         44.04882        38.19145        -0.53048
C         45.30062        40.31454        -0.61708
C         44.06001        39.60662        -0.66956
C         45.32826        41.73642        -0.78573
C         44.07009        42.43814        -1.09041
C         45.30010        44.64335        -0.66958
C         44.04840        43.96331        -1.00564
C         45.27331        46.04848        -0.43382
C         44.02196        46.73878        -0.28830
C         45.26191        48.86557         0.02561
C         44.01111        48.15036        -0.04063
C         45.27945        50.27340         0.25624
C         44.03287        50.98843         0.41661
C         45.24681        53.16416         0.65364
C         44.00666        52.37251         0.71756
C         45.28750        54.51398         1.23324
C         44.03170        55.13025         1.61786
C         44.00628        56.46028         2.11370
C         47.52719        19.06515         2.70173
C         46.32176        18.34881         2.61922
C         47.56023        20.43560         2.49132
C         46.35741        21.15747         2.25253
C         47.62996        23.31557         2.26332
C         46.36986        22.58323         2.15046
C         47.54085        24.77199         2.16964
C         46.33107        25.44583         1.83831
C         47.58936        27.52197         1.41518
C         46.36572        26.83745         1.55963
C         47.63033        28.87056         0.74574
C         46.36237        29.68832         0.91876
C         47.69132        31.74243         0.48636
C         46.42815        31.05640         0.66208
C         47.73227        33.11807         0.19403
C         46.49254        33.79270        -0.22999
C         47.77601        36.03088        -0.16214
C         46.52381        35.31497        -0.44637
C         47.76060        37.46206        -0.15562
C         46.50683        38.17046        -0.31696
C         47.74622        40.32488        -0.34778
C         46.51668        39.60097        -0.41573
C         47.76365        41.74613        -0.50708
C         46.52370        42.45918        -0.71694
C         47.73972        44.62906        -0.62159
C         46.51774        43.92019        -0.70074
C         47.75377        46.04484        -0.51638
C         46.50795        46.75455        -0.38225
C         47.72319        48.87842        -0.11023
C         46.49416        48.17574        -0.17661
C         47.73868        50.21995         0.28893
C         46.52676        50.93465         0.41153
C         47.80101        53.10420         0.92295
C         46.57646        52.40847         0.50735
C         47.74553        54.44628         1.21730
C         46.51357        55.14088         1.37210
C         49.78250        20.43032         1.41233
C         48.90063        21.11370         2.44500
C         50.12831        23.18704         1.85841
C         48.84229        22.60823         2.22879
C         50.43762        24.52782         2.15440
C         48.64546        25.61411         2.41898
C         50.08345        27.58408         1.78420
C         48.76706        26.90625         1.86675
C         50.10670        28.98078         1.31566
C         48.90596        29.64677         1.01649
C         50.15592        31.74917         0.72711
C         48.92061        31.03475         0.73171
C         50.16695        33.16434         0.47048
C         48.95427        33.85542         0.21007
C         50.20080        36.01138         0.19540
C         48.96267        35.29784         0.05103
C         50.21239        37.46151         0.12889
C         48.97026        38.18330        -0.03227
C         50.17532        40.36107        -0.01253
C         48.97427        39.62548        -0.12563
C         50.20891        41.77000        -0.23109
C         48.98996        42.44731        -0.48494
C         50.26013        44.63144        -0.56490
C         49.00994        43.88679        -0.92947
C         50.24497        46.05407        -0.58617
C         48.99618        46.74893        -0.55151
C         50.25650        48.91496        -0.28474
C         48.96453        48.25029        -0.69286
C         50.29131        50.19009         0.25057
C         49.02911        50.85681         0.65484
C         50.35661        53.01229         0.89490
C         49.06307        52.32821         1.01305
C         50.81600        21.06127         0.81922
C         52.23205        23.13852         0.58484
C         51.08197        22.46156         1.09093
C         52.30924        24.55772         0.66236
C         51.38521        25.28166         1.44106
C         52.51346        27.49033         0.93262
C         51.40886        26.76157         1.55655
C         52.59119        28.87770         1.01541
C         51.36638        29.65512         1.20573
C         52.64122        31.78070         0.93919
C         51.36646        31.04492         0.95907
C         52.64650        33.19183         0.54837
C         51.40941        33.87887         0.43703
C         52.68940        35.99944         0.50590
C         51.40111        35.30032         0.34535
C         52.70851        37.51321         0.45072
C         51.41119        38.16547         0.21353
C         52.74372        40.34194         0.23631
C         51.41392        39.62653         0.28578
C         52.72073        41.82368         0.05684
C         51.45130        42.50711        -0.20916
C         52.72746        44.61961        -0.55988
C         51.47304        43.91158        -0.42482
C         52.71268        46.05878        -0.67597
C         51.48921        46.75869        -0.62484
C         52.77479        48.87571        -0.26303
C         51.51037        48.25641        -0.79126
C         52.77992        50.20359         0.22320
C         51.52842        50.90034         0.43421
C         51.50937        52.30332         0.69735
C         54.49052        23.07285        -0.40371
C         53.33596        22.43477        -0.01607
C         54.62433        24.49470        -0.37315
C         53.41362        25.25678        -0.02413
C         54.85397        27.37325        -0.01571
C         53.52793        26.75983         0.14725
C         54.95100        28.79979         0.20275
C         53.83366        29.52031         0.62823
C         55.09453        31.66780         0.18003
C         53.94179        30.97816         0.77665
C         55.04790        33.06037        -0.00685
C         53.87522        33.83408         0.23275
C         55.05761        35.97950        -0.22875
C         53.91456        35.27273         0.12944
C         55.11284        37.42533        -0.26897
C         53.95925        38.20014         0.03065
C         55.13925        40.27456        -0.60590
C         53.97574        39.59911        -0.11928
C         55.17720        41.70577        -0.78913
C         54.01780        42.50479        -0.34408
C         55.16648        44.57568        -0.99527
C         53.93563        43.92256        -0.70756
C         55.19295        46.02855        -0.86682
C         53.95882        46.75474        -0.73996
C         55.22750        48.84882        -0.26745
C         53.98893        48.17235        -0.44606
C         55.22152        50.15928         0.22773
C         54.02658        50.80645         0.52268
C         56.98686        24.48139        -1.13460
C         55.83123        25.18160        -0.64121
C         57.31396        27.22659        -0.34578
C         55.93846        26.60385        -0.40602
C         57.32209        28.72731        -0.52739
C         56.19117        29.47765        -0.15572
C         57.44050        31.56944        -0.62282
C         56.22802        30.90454        -0.21837
C         57.46957        32.98516        -0.74430
C         56.19478        33.71374        -0.65030
C         57.50108        35.90002        -0.91687
C         56.20613        35.22460        -0.75637
C         57.50397        37.31882        -0.97246
C         56.30054        38.08361        -0.70886
C         57.45785        40.15205        -1.45348
C         56.30673        39.49804        -0.89049
C         57.38985        41.53419        -1.83508
C         56.26816        42.36519        -1.39818
C         57.51282        44.61598        -1.62864
C         56.30516        43.83149        -1.38780
C         57.64780        45.91370        -0.91949
C         56.41258        46.68573        -0.72683
C         57.79030        48.79509        -0.44718
C         56.46341        48.19308        -0.83626
C         58.16416        25.12832        -1.44028
C         59.49978        27.19545        -1.56029
C         58.34013        26.51284        -1.18623
C         59.62102        28.57723        -1.37638
C         58.53630        29.36582        -0.91764
C         59.79391        31.51991        -1.23805
C         58.60806        30.81317        -0.92010
C         59.82478        32.90251        -1.28031
C         58.65649        33.67591        -1.05877
C         59.87971        35.85053        -1.35283
C         58.67524        35.14256        -1.12341
C         59.88182        37.22623        -1.49184
C         58.69434        37.98377        -1.35725
C         59.71332        39.96661        -2.41135
C         58.64104        39.39077        -1.70622
C         59.58402        41.24057        -2.94384
C         58.43652        41.98999        -2.67294
C         59.69681        45.08170        -2.72874
C         58.52601        44.28465        -2.50416
C         59.91705        46.23519        -2.03468
C         58.95074        46.70028        -1.04083
C         58.93666        48.13764        -0.65679
O         36.83988        22.84539         1.74752
O         46.60123        34.37743        -1.57114
O         44.33276        27.41408         2.75756
O         52.14093        40.02333         1.52944
O         34.75275        31.23938        -2.55619
O         58.35607        43.19982        -3.37193
O         53.61220        42.39486         1.07664
O         51.02326        27.30999         2.85015
O         53.52096        31.48694         2.07996
O         26.83835        47.71038        -0.91823
O         33.11998        27.88351        -2.44065
O         29.40320        38.51172        -1.81813
O         45.92283        53.05201        -0.64203
O         33.99069        35.39226         1.26579
O         37.44606        28.33779         1.44396
O         28.29762        48.07454         2.34602
O         33.69912        41.69267         1.60836
O         25.02417        39.68318        -2.51019
O         29.15576        34.14128         1.32605
O         36.34495        43.83147         1.41457
O         58.67356        45.87125         0.14260
O         52.95718        26.17840        -1.09085
O         24.47478        43.33241        -2.52849
O         29.40178        25.01111         0.15089
O         44.44284        31.80560         1.95146
O         27.78426        36.84000         1.16590
O         27.45769        24.74068        -3.02904
O         52.79676        36.79847         1.73447
O         49.70757        25.12226         3.18980
O         35.61117        42.17595        -1.61502
O         31.64003        46.90430         2.44957
O         38.70737        47.53688        -1.67443
O         40.59059        36.91644        -2.62926
O         40.61477        22.84459         2.63541
O         38.86559        43.27206        -2.23740
O         49.03125        51.28740         2.06620
O         44.12259        43.26302        -2.30181
O         33.19661        23.68249        -1.97458
O         55.84097        34.38899        -1.92000
O         39.55667        51.15513        -1.01872
O         42.38708        35.02836        -2.55748
H         42.13267        35.79960        -3.11477
O         31.63255        34.72463         1.86176
H         32.55765        34.64960         2.19472
O         41.07818        48.09666         1.63006
H         41.79407        47.65944         2.13732
O         48.83263        48.48779        -2.14662
H         49.71763        48.28076        -2.54332
O         38.83171        35.19409        -3.11339
H         39.23618        36.01854        -3.48186
O         56.36974        48.44840        -2.29450
H         55.48119        48.15026        -2.58742
O         38.22759        20.14614        -1.22231
H         37.57358        19.54989        -1.64671
O         43.08081        20.19292        -0.27128
H         43.90082        19.66380        -0.37190
O         36.89222        25.20967        -1.83478
H         36.13022        25.66202        -2.25761
O         49.54261        20.89379         3.74215
H         50.38139        21.40179         3.74540
O         42.14116        35.87729         0.98600
H         42.78596        36.22934         1.63477
O         29.41794        26.50783        -3.21080
H         29.53071        27.41242        -3.57025
O         37.81566        32.75315        -2.93653
H         38.03770        33.60055        -3.39372
O         57.75301        27.00455         1.05584
H         58.65819        27.37532         1.13385
O         33.69344        25.22374         1.30427
H         34.46463        25.55623         1.81131
O         47.68669        28.56070        -0.69676
H         47.76819        29.41095        -1.17967
O         40.77026        48.95348        -1.87227
H         40.15221        49.54916        -2.34914
O         49.05160        43.81903        -2.42014
H         48.17656        43.48884        -2.71965
O         32.92389        49.95992         3.18659
H         32.85699        50.87723         3.52894
O         51.54423        48.49035        -2.27663
H         51.69557        49.45151        -2.40882
H         22.10980        26.74113        -1.01171
H         22.08576        29.18673        -0.73709
H         22.07253        31.08032        -0.71675
H         22.07468        33.50005        -0.55372
H         22.09063        35.38844        -0.72330
H         22.12364        37.81134        -0.96379
H         22.10244        39.77147        -0.98059
H         22.17896        42.15381        -1.40464
H         22.14957        44.11366        -1.29669
H         22.08933        46.28882        -0.14443
H         25.33571        23.42067        -1.97150
H         23.27377        24.65595        -1.41605
H         25.25519        49.43408         1.47060
H         23.21155        48.17963         0.87603
H         27.06057        22.35329        -1.55845
H         27.05801        50.68225         0.69143
H         29.04924        21.21115        -0.81446
H         29.18055        51.84742         0.90602
H         32.83465        19.09681        -0.10303
H         30.75116        20.21953        -0.56422
H         32.84751        53.97221         1.65686
H         30.76500        52.77271         1.35005
H         34.51280        18.14221         0.17875
H         34.49769        54.84268         2.18498
H         36.56973        17.00303         0.74641
H         36.60258        56.02572         2.44007
H         40.23459        14.97080         1.92134
H         38.18340        16.09601         1.18292
H         40.38102        58.06269         3.00498
H         38.23946        56.88959         2.74687
H         42.61675        15.06431         2.56841
H         42.81728        58.10918         2.82404
H         44.70548        16.32864         2.85305
H         44.94380        57.01911         2.22986
H         48.45714        18.52791         2.93263
H         46.34797        17.26588         2.79558
H         48.66654        54.99031         1.46922
H         46.56968        56.17767         1.72894
H         49.60001        19.36490         1.20498
H         50.39918        54.10756         0.96545
H         51.45717        20.51839         0.11032
H         52.45730        52.85821         0.66519
H         55.33164        22.45822        -0.75262
H         53.29351        21.33915        -0.08239
H         56.16533        50.69308         0.40209
H         54.06612        51.81403         0.95674
H         56.90936        23.40706        -1.34833
H         57.82268        49.84677        -0.12884
H         58.98581        24.56903        -1.91279
H         60.31669        26.64373        -2.04900
H         60.55362        29.06291        -1.69169
H         60.72127        30.97098        -1.44964
H         60.77567        33.39478        -1.52315
H         60.82909        35.31080        -1.46402
H         60.83402        37.72616        -1.71235
H         60.62125        39.38927        -2.62400
H         60.36411        41.66609        -3.58752
H         60.39253        44.76260        -3.51665
H         60.74691        46.90114        -2.31420
H         59.90601        48.62392        -0.46428
