         658
 CSIRO Nanostructure Databank - Neutral Graphene Oxide Data Set
C          6.22871        32.02223         1.95000
C          6.08668        33.31084         1.57080
C          8.64668        27.67033         1.59227
C          8.58575        29.09165         1.44297
C          7.48651        29.82402         1.87244
C          8.48693        31.86827         0.86788
C          7.56599        31.32224         1.93424
C          8.30519        33.23814         0.46321
C          7.19015        34.05925         0.99029
C          8.34360        36.19166         0.45607
C          7.18346        35.43040         0.86333
C          8.37563        37.57269         0.40906
C         10.98291        23.34473         1.14284
C         10.81839        24.70555         0.75603
C          9.77011        25.47253         1.23763
C         10.85733        27.57700         0.56133
C          9.73904        26.91079         1.10480
C         11.02392        29.03467         0.92124
C          9.72451        29.78836         0.85669
C         10.76137        31.78687        -0.31972
C          9.64784        31.13667         0.50910
C         10.85364        33.28463        -0.12143
C          9.59828        33.99597         0.02764
C         10.89868        36.15162        -0.03504
C          9.61535        35.43816         0.32308
C         10.73478        37.56178        -0.44989
C          9.55506        38.31724         0.03059
C         10.81800        40.41577        -0.34865
C          9.60626        39.69372        -0.02311
C         10.85440        41.81532        -0.22084
C         13.70299        19.34677         1.93024
C         13.52774        20.59027         1.27800
C         12.31513        21.30684         1.39714
C         13.12412        23.09784        -0.13371
C         12.10153        22.57295         0.80941
C         13.00846        24.52346        -0.60667
C         11.80561        25.32402        -0.17767
C         13.10865        27.50735        -0.71142
C         11.84756        26.83035        -0.23178
C         13.34584        28.93669        -0.33760
C         12.22315        29.73018         0.27832
C         13.23041        31.77278        -0.66845
C         12.12451        31.13869        -0.15965
C         13.13031        33.20737        -1.14809
C         12.01587        33.97853        -0.47191
C         13.23817        36.10867        -0.91999
C         12.05319        35.39320        -0.53920
C         13.25757        37.52224        -0.96256
C         11.99406        38.28060        -0.89317
C         13.25042        40.41861        -0.83568
C         12.01698        39.73191        -0.70485
C         13.27459        41.83700        -0.70101
C         12.05680        42.54128        -0.39811
C         13.28358        44.67831        -0.32075
C         12.07804        43.94618        -0.24059
C         13.30176        46.07538        -0.10411
C         16.41671        15.37368         2.90480
C         16.21095        16.56616         2.21537
C         15.06729        17.36206         2.44243
C         15.97487        19.12974         0.97733
C         14.88789        18.60117         1.79350
C         15.84899        20.47461         0.44996
C         14.64883        21.15561         0.55890
C         15.66170        23.17830        -0.61901
C         14.45629        22.41215        -0.20093
C         15.57701        24.49456        -1.01084
C         14.27254        25.20303        -1.09446
C         15.62280        27.42738        -1.21142
C         14.31112        26.71296        -1.16072
C         15.59797        28.86171        -1.32041
C         14.46047        29.63636        -1.00969
C         15.64212        31.80454        -1.23072
C         14.46429        31.05957        -0.96855
C         15.64448        33.22237        -1.13433
C         14.44264        33.95683        -1.09311
C         15.70295        36.09293        -1.31354
C         14.46514        35.36738        -1.09580
C         15.69383        37.54390        -1.32997
C         14.47659        38.25200        -1.13534
C         15.68553        40.41045        -1.26213
C         14.46807        39.68955        -1.08777
C         15.67774        41.84551        -1.19712
C         14.49804        42.55475        -0.86686
C         15.71411        44.71348        -0.61423
C         14.51385        43.98561        -0.62762
C         15.74278        46.10259        -0.31799
C         14.50816        46.80905        -0.10151
C         15.75004        48.92451         0.12597
C         14.53663        48.21558         0.08930
C         15.78858        50.34229         0.27883
C         18.98280        11.18868         3.54749
C         18.90200        12.54134         3.07767
C         17.74077        13.33227         3.30258
C         18.67639        15.14479         1.92271
C         17.59931        14.59321         2.71468
C         18.49700        16.33177         1.16822
C         17.12324        16.91691         1.07774
C         18.13389        18.88984        -0.20094
C         17.07364        18.35054         0.67265
C         18.12463        20.33419        -0.46872
C         16.99071        21.08071        -0.22065
C         18.10170        23.15585        -0.97533
C         16.92677        22.47944        -0.61981
C         18.09185        24.52471        -1.31337
C         16.77570        25.20655        -1.61974
C         18.07290        27.39966        -1.44169
C         16.80656        26.70605        -1.36578
C         18.08509        28.79030        -1.57107
C         16.83187        29.52643        -1.72888
C         18.16386        31.74043        -1.44045
C         16.87605        31.10067        -1.61781
C         18.20875        33.18831        -1.21558
C         16.91297        33.96698        -1.14216
C         18.14735        36.08136        -1.98027
C         16.90052        35.39879        -1.45794
C         18.17992        37.55827        -1.65299
C         16.92138        38.26617        -1.46318
C         18.17132        40.38408        -1.69009
C         16.89855        39.67546        -1.46772
C         18.21471        41.89558        -1.61325
C         16.91038        42.61503        -1.45611
C         18.25729        44.68030        -0.70673
C         16.96058        44.07030        -1.06828
C         18.23608        46.07897        -0.35028
C         16.98496        46.80073        -0.25328
C         18.22450        48.89654         0.14844
C         16.99178        48.19655         0.00424
C         18.23957        50.30506         0.33864
C         16.99802        51.04622         0.35549
C         18.25952        53.16923         0.53413
C         17.05003        52.47165         0.45941
C         18.30906        54.59777         0.60318
C         21.60383         7.15891         4.56212
C         21.39647         8.29635         3.77908
C         20.24403         9.10457         3.91706
C         21.07104        10.80409         2.27407
C         20.05094        10.33720         3.24256
C         21.12723        12.28301         1.98695
C         20.00696        13.14104         2.42302
C         21.01603        15.02581         1.15100
C         19.92642        14.46126         1.88944
C         20.80760        16.16734         0.36821
C         19.55086        16.82989         0.37808
C         20.64186        18.80421        -0.84975
C         19.39909        18.09638        -0.40460
C         20.60358        20.23083        -1.10783
C         19.27526        20.96134        -1.22445
C         20.59296        23.11375        -1.41140
C         19.40930        22.42118        -0.78743
C         20.56279        24.50870        -1.61521
C         19.30723        25.22409        -1.50024
C         20.56152        27.31809        -1.64729
C         19.32284        26.65309        -1.53377
C         20.62603        28.75250        -1.32069
C         19.33279        29.54101        -1.38555
C         20.61581        31.67699        -1.52983
C         19.39037        31.01890        -1.54557
C         20.66896        33.16466        -1.27740
C         19.42841        33.85523        -1.82504
C         20.65498        36.00157        -1.73650
C         19.44963        35.35445        -1.67269
C         20.63484        37.46061        -2.14317
C         19.39553        38.21580        -1.67357
C         20.61877        40.38094        -1.44197
C         19.43889        39.65427        -1.54055
C         20.65388        41.80465        -1.19908
C         19.46743        42.55292        -1.19706
C         20.71397        44.56813        -0.46131
C         19.45502        43.93945        -0.78313
C         20.68830        45.96210         0.15318
C         19.43801        46.75541        -0.11890
C         20.67867        48.86599         0.26132
C         19.46043        48.16760         0.09866
C         20.69450        50.25662         0.50806
C         19.47069        50.98793         0.51022
C         20.72859        53.08604         0.70554
C         19.50724        52.42156         0.58414
C         20.81224        54.56009         0.45136
C         19.51159        55.30536         0.61888
C         20.81854        57.40152         0.65259
C         19.58795        56.71401         0.55725
C         20.93483        58.75288         0.31130
C         24.19691         4.53028         5.25680
C         22.98481         5.23708         5.27305
C         23.90994         6.85437         3.68414
C         22.81573         6.40106         4.49728
C         23.77127         8.01064         2.86517
C         22.43117         8.64636         2.76845
C         23.47887        10.57445         1.37948
C         22.27378         9.93852         2.01610
C         23.60425        12.05515         1.44485
C         22.44508        12.94747         1.73991
C         23.46481        15.07968         0.53004
C         22.36784        14.41872         1.28779
C         23.22368        16.10758        -0.35890
C         21.82847        16.59614        -0.66459
C         23.01878        18.69647        -1.52857
C         21.80851        18.07993        -0.96001
C         23.00116        20.19834        -1.68369
C         21.76564        20.93685        -1.37172
C         22.97910        23.07188        -1.93036
C         21.78687        22.38517        -1.55365
C         22.95566        24.44267        -2.20427
C         21.75840        25.19292        -1.99803
C         22.97725        27.35750        -2.21816
C         21.76546        26.63238        -1.98494
C         23.05559        28.75498        -2.08370
C         21.92129        29.47785        -1.48695
C         23.05056        31.66641        -2.29714
C         21.91172        30.97299        -1.55814
C         23.09619        33.13704        -1.95161
C         21.94588        33.83898        -1.70890
C         23.15661        35.97198        -1.69339
C         21.92598        35.28733        -1.71388
C         23.16885        37.40137        -1.55898
C         21.94114        38.19138        -1.85576
C         23.08554        40.28453        -0.89017
C         21.90343        39.65049        -1.53758
C         23.12190        41.76354        -0.87475
C         21.93203        42.47009        -0.93975
C         23.19638        44.51295        -0.24831
C         21.92118        43.89189        -0.62309
C         23.12637        45.88481         0.32968
C         21.97116        46.68608        -0.26181
C         23.05240        48.76053         0.93872
C         22.01392        48.23113        -0.03715
C         23.13526        50.23263         0.99021
C         21.93595        50.95256         0.77596
C         23.15863        53.02640         1.28948
C         21.94595        52.36299         0.90913
C         23.16317        54.49086         1.34944
C         22.00038        55.21012         1.09914
C         23.33073        57.30732         1.00098
C         21.99279        56.69618         1.30725
C         23.40134        58.80612         0.94397
C         22.16392        59.46413         0.36090
C         23.55879        61.46129         0.03222
C         22.28188        60.79503        -0.00600
C         25.27227         4.97591         4.50242
C         26.25970         6.66959         2.98792
C         25.15967         6.15703         3.71223
C         26.16008         7.87326         2.25998
C         24.87132         8.51533         2.16509
C         26.06522        10.48987         1.18190
C         24.79185         9.78741         1.41997
C         26.04818        11.86803         0.92919
C         24.86752        12.56833         1.36892
C         25.76024        14.70968        -0.34912
C         24.82286        14.62095         0.65944
C         25.55053        15.84895        -1.24784
C         24.35771        16.68491        -1.03341
C         25.56113        18.71889        -1.70979
C         24.33140        18.00616        -1.47857
C         25.56675        20.17594        -1.74234
C         24.30408        20.90492        -1.57350
C         25.54668        23.05321        -2.18465
C         24.29656        22.41138        -1.78092
C         25.53036        24.38815        -2.89461
C         24.17526        25.11491        -2.72607
C         25.46715        27.31645        -2.68279
C         24.17101        26.60796        -2.67348
C         25.35250        28.69103        -2.84516
C         24.24637        29.48316        -2.40095
C         25.57700        31.58331        -1.86431
C         24.37094        30.90535        -2.19835
C         25.47615        32.98900        -1.21467
C         24.43156        33.80512        -2.04783
C         25.59607        35.88279        -1.30087
C         24.40356        35.25007        -1.64053
C         25.58868        37.30973        -1.13394
C         24.35262        38.04609        -1.25624
C         25.61423        40.18777        -0.90258
C         24.34199        39.46610        -0.82884
C         25.61904        41.58480        -0.36565
C         24.46704        42.46877        -0.83866
C         25.57217        44.45163         0.46722
C         24.37350        43.82391        -0.17442
C         25.68383        45.97483         0.47600
C         24.34168        46.54132         0.87958
C         25.52827        48.70572         1.57378
C         24.27953        47.98479         1.27343
C         25.52019        50.06761         1.69260
C         24.31761        50.85975         1.42381
C         25.53528        52.93891         2.10057
C         24.30807        52.27592         1.60270
C         25.59327        54.49935         1.98246
C         24.40840        55.18810         1.50314
C         25.81322        57.23595         1.10774
C         24.49302        56.57789         1.16435
C         25.88987        58.55817         0.71467
C         24.66147        59.25748         0.19277
C         24.71990        60.76696         0.17656
C         27.31282         8.45133         1.64686
C         28.43464        10.48428         0.66229
C         27.29521         9.77599         1.14222
C         28.33679        11.78881         0.16349
C         27.14578        12.54045         0.31098
C         28.18501        14.42806        -1.13791
C         26.96856        13.83056        -0.45145
C         28.18848        15.82141        -1.79608
C         26.84724        16.56597        -1.78588
C         28.01665        18.74358        -1.36863
C         26.78567        18.01799        -1.71139
C         28.00461        20.27375        -1.46442
C         26.73399        20.93587        -1.77268
C         28.01492        23.07773        -2.16612
C         26.74826        22.36480        -2.03617
C         28.01922        24.49949        -2.30337
C         26.76067        25.22773        -2.51391
C         27.94187        27.31590        -1.86152
C         26.72388        26.61749        -2.50864
C         28.05159        28.83342        -1.79305
C         27.15695        29.74926        -2.32762
C         27.80255        31.48992        -0.63673
C         26.84782        30.98565        -1.71616
C         27.95073        32.99969        -0.72466
C         26.81806        33.73048        -1.12642
C         28.03105        35.82018        -0.65288
C         26.84768        35.14797        -1.08134
C         28.01226        37.31492        -0.48529
C         26.79278        38.00706        -0.99460
C         28.55707        40.47393        -0.44917
C         26.72579        39.43194        -1.16387
C         28.19805        41.59437         0.23844
C         26.84960        42.21609         0.22905
C         28.12749        44.46278         0.74623
C         26.82382        43.67108         0.64960
C         27.99203        45.68715         1.67330
C         26.80691        46.52802         1.30942
C         28.04438        48.62057         1.86202
C         26.72618        47.86979         1.98321
C         28.03255        50.00597         1.96801
C         26.74386        50.72682         2.29499
C         28.03158        52.90095         2.07134
C         26.79811        52.21527         2.07032
C         28.07647        54.32664         1.93969
C         26.92480        55.11899         1.79545
C         26.98227        56.47194         1.41835
C         29.57691        12.34819        -0.53754
C         30.65551        14.55947        -0.92700
C         29.51650        13.84597        -0.82878
C         30.72710        15.97939        -1.43281
C         29.37264        16.66814        -1.39982
C         30.59051        18.80991        -1.55895
C         29.30961        18.01803        -1.38969
C         30.47814        20.28927        -1.12451
C         29.25879        20.99574        -1.65041
C         30.50321        23.08949        -2.08898
C         29.26144        22.36441        -2.00137
C         30.48906        24.49467        -2.18685
C         29.25524        25.20237        -2.25371
C         30.42895        27.36602        -1.60703
C         29.26563        26.72442        -2.35852
C         30.41551        28.64506        -1.12478
C         29.17484        29.42715        -1.09343
C         30.39577        31.50331        -0.41043
C         29.12086        30.74465        -0.67988
C         30.21107        32.81178         0.37763
C         29.10729        33.65385        -0.25358
C         30.29605        35.72581         0.54725
C         29.14495        35.06362        -0.20886
C         30.54235        37.20558         0.03999
C         29.25262        38.02714         0.02480
C         30.52373        40.02674         0.82313
C         29.52754        39.51048         0.06012
C         30.56734        41.53573         0.84916
C         29.20758        42.12347         1.23210
C         30.47553        44.28725         1.53102
C         29.31583        43.64079         1.17457
C         30.49931        45.74157         1.68427
C         29.30254        46.46546         1.69333
C         30.50592        48.61915         1.91867
C         29.27704        47.89166         1.82380
C         30.48870        50.00384         1.95977
C         29.26404        50.74142         1.98539
C         29.24862        52.14789         2.06657
C         31.78999        16.80096        -0.74689
C         32.88191        18.99508        -0.48366
C         31.76992        18.16078        -0.85576
C         32.95414        20.32711        -0.87884
C         31.77154        20.93624        -1.54048
C         33.13838        23.08815        -2.05220
C         31.79503        22.34760        -2.02228
C         32.92689        24.55232        -1.71563
C         31.75934        25.21041        -1.99145
C         32.99861        27.46262        -1.57125
C         31.73336        26.69994        -1.83104
C         32.96785        28.71376        -0.79587
C         31.62217        29.24714        -0.48212
C         32.78505        31.26072         0.65660
C         31.49576        30.60097         0.14590
C         32.72337        32.77941         0.71164
C         31.55863        33.53129         0.47972
C         32.89893        35.68096         0.53932
C         31.58476        34.93328         0.50802
C         32.78508        36.99429         1.32607
C         31.65099        37.83635         0.84049
C         32.85681        39.86738         1.75939
C         31.50280        39.15183         1.56058
C         32.91664        41.36135         1.81522
C         31.69136        42.16157         1.60847
C         32.97654        44.21762         1.99893
C         31.70759        43.52165         1.75467
C         32.92144        45.66061         2.12708
C         31.76805        46.38804         1.93488
C         31.83746        47.90127         2.02133
C         34.09539        21.13135        -0.67731
C         35.52121        23.00416        -1.05500
C         34.25924        22.41202        -1.23814
C         35.99005        24.23296        -1.64251
C         33.93844        25.37567        -0.96077
C         35.51604        27.37224        -1.00862
C         34.32921        26.69333        -1.64751
C         35.47517        28.73931        -0.72087
C         34.15531        29.45262        -0.61677
C         35.05091        31.75944        -0.20305
C         34.00602        30.81357        -0.15271
C         35.20426        32.82829         0.67293
C         33.96420        33.42038         1.31043
C         35.25967        35.58426         1.24920
C         34.07095        34.90519         1.06932
C         35.31704        37.02383         1.25215
C         34.10429        37.76321         1.31200
C         35.37259        39.86788         1.56820
C         34.11993        39.13983         1.48822
C         35.40762        41.26186         1.67531
C         34.18217        42.08794         1.42038
C         34.16158        43.52169         1.91874
C         36.72036        25.10688        -0.81844
C         37.80479        27.13687        -0.12182
C         36.69739        26.55965        -0.74033
C         37.87417        28.53658         0.13896
C         36.71612        29.33397        -0.24834
C         37.93553        31.37187         0.47990
C         36.93424        30.70612        -0.25680
C         37.83157        32.72500         0.81919
C         36.52020        33.38386         1.04504
C         37.81711        35.57900         1.41279
C         36.53103        34.84781         1.47027
C         37.80673        36.95822         1.38850
C         36.57190        37.71191         1.38601
C         36.58255        39.10072         1.52936
C         39.02851        29.13447         0.63150
C         40.31186        31.31793         1.14885
C         39.01386        30.54304         1.14620
C         40.28346        32.66705         1.22427
C         39.03032        33.42638         1.22161
C         39.02412        34.79867         1.42956
O         10.99119        37.77812        -1.86727
O         16.75593        30.37925        -2.90164
O         23.50699        39.68707         0.38313
O         11.86015        24.69144        -1.48954
O         23.19148        48.18697         2.25677
O         28.23234        37.64517         0.99048
O         25.85757        41.49588         1.07124
O         26.41141        29.37050        -3.44554
O         23.46047        45.78053         1.75167
O         17.76452        33.67894         0.07465
O         23.93497         9.86827         0.20473
O         24.35945        21.80217        -0.42347
O         16.81342        43.66003        -2.48599
O         32.93330        40.58769         3.05529
O         21.89655         8.67812         1.39520
O         22.67501        14.03689         2.67460
O         25.92578        15.85313        -2.65142
O         34.10381        25.17493         0.23233
O         22.30647        30.29987        -0.32401
O         25.91834        43.88406         1.78299
O         18.36750        18.07101        -1.45961
O         16.37905        16.14443        -0.13315
O         31.18769        29.45382         0.97105
O         25.08569        32.78234         0.09665
O         11.96563        27.38173        -1.60466
O         20.61579        11.33906         0.98419
O         36.49276        33.81408         2.48099
O         36.11983        31.49713        -1.07589
O         10.57200        35.83870         1.36246
O         13.40720        29.33414         1.08226
O         18.23925        41.22009        -2.91169
O         19.94099        29.11182        -0.09140
O         25.11907        13.87564         1.79634
O         32.38520        27.50133        -2.93407
O         31.86324        21.20801        -2.96893
O         23.88603        25.88155        -3.95203
O         14.07900        25.91449        -2.36631
O         22.21161        39.19875        -2.91543
O         22.84217        19.33988        -2.85313
O         25.37522        53.82041         3.25361
O         27.29862        13.53687        -1.87374
O         27.88088        40.08306        -1.59575
O         27.90343        19.56060        -0.14024
O         13.44244        22.21248        -1.25778
O          8.59339        33.55978        -0.94744
O         28.85848        41.74288         2.57574
H         27.88288        41.78484         2.67006
O         24.81081        42.73305        -2.24644
H         24.07578        43.24447        -2.64805
O         30.96751        38.87812         2.89448
H         31.29978        39.60402         3.47729
O         30.89885        31.93846        -1.71612
H         30.86705        31.17828        -2.33561
O         20.73210        45.80827         1.59420
H         19.93414        45.31965         1.88240
O         27.80622        45.22362         3.05383
H         26.98580        44.66628         3.04689
O         21.81722        56.92919         2.75668
H         22.25359        57.79016         2.96472
O         31.11891        15.93168        -2.85038
H         30.33912        15.55891        -3.33285
O         22.68678        31.60348        -3.71214
H         23.37619        32.09862        -4.20731
O         33.57353        23.06963        -3.44932
H         33.23737        22.21608        -3.82161
O         27.16312        31.17994         0.62901
H         26.32918        31.74893         0.67005
O         26.55191        47.64514         3.43428
H         27.06655        46.82621         3.65964
O         28.40004        44.98484        -0.59536
H         28.93564        44.32082        -1.08114
O         34.06167        42.19129        -0.06189
H         34.85370        42.67020        -0.38792
O         18.04424        36.00498        -3.45681
H         18.79928        36.54663        -3.80842
O         25.90016        46.40872        -0.91045
H         26.81211        46.11597        -1.15421
O         32.52005        36.61137         2.70173
H         31.89156        37.26919         3.09086
O         20.48649        37.40934        -3.60241
H         20.88363        38.24771        -3.94451
O         28.44303        15.53351        -3.20839
H         27.69326        14.96283        -3.50086
O         29.42228        27.08679        -3.74877
H         30.35542        26.92937        -4.00759
O         22.07402        46.46360        -1.68802
H         22.79369        47.04297        -2.02686
O         11.28779        29.01620         2.37637
H         12.26787        28.96010         2.48152
O         33.25094        36.02831        -0.85398
H         33.38519        35.19002        -1.34560
O         25.66188        24.06500        -4.30660
H         25.21255        24.79251        -4.79967
O         29.81126        32.47656         1.71552
H         29.66787        33.31457         2.20697
O         24.48513        58.81321        -1.19122
H         25.24085        59.15441        -1.71309
O         33.02584        30.78425         2.01193
H         32.40497        30.02454         2.15291
O         30.80253        41.97884        -0.53307
H         31.76781        41.90709        -0.70999
O         30.88831        37.13017        -1.36954
H         31.82533        36.80902        -1.44047
O         33.90126        33.20404         2.73639
H         33.66501        32.25564         2.87991
O         35.78365        24.48069        -2.93286
H         35.11675        23.85660        -3.32294
O         18.92997        20.93297        -2.62973
H         18.73298        20.00098        -2.86892
O         16.61062        25.07828        -3.07214
H         15.68928        25.37519        -3.27651
O         32.73789        48.39995         1.01299
H         32.36145        48.18263         0.13570
O         30.43106        20.34469         0.32151
H         29.52946        20.03977         0.59406
O         21.42243        15.92831        -1.90075
H         21.97492        16.27827        -2.63204
O         19.67839        22.37791         0.64918
H         19.86098        23.29207         0.95230
O         34.65436        26.52932        -3.03225
H         33.88580        26.85290        -3.56187
O         20.62946        33.31095         0.16700
H         21.37671        32.80324         0.55085
O          8.17522        31.62427         3.25024
H          8.99746        31.09088         3.31535
O         12.73738        33.13996        -2.55370
H         11.92095        32.58237        -2.59193
O         30.84530        18.77572        -2.98064
H         31.05125        17.83334        -3.21043
O         22.44961        48.84200        -1.29609
H         21.67505        48.88087        -1.89699
O         38.59744        30.43546         2.55714
H         38.40405        31.34421         2.87693
O         24.90639        33.71995        -3.43086
H         24.43169        34.40143        -3.95254
O         23.47896        59.25007         2.33480
H         23.51177        60.23156         2.32536
O         26.57917        50.56948         3.74899
H         26.49324        49.59909         3.92137
O         27.86742        26.91719        -0.46129
H         27.24659        27.51165         0.01011
O         30.72536        11.95619         0.09012
O         29.89631        35.78160         1.93637
H         29.13265        36.41079         1.99469
O         17.34235        15.56848        -0.99631
H         17.65318        16.34020        -1.54640
O         10.39825        31.59180        -1.73121
H          9.56954        32.11356        -1.87224
O         19.38453        33.60059        -3.25062
H         18.79151        34.28141        -3.65789
O         21.11072        54.68386        -1.00112
H         21.89159        54.11987        -1.18899
H          5.37947        31.48601         2.39939
H          5.12444        33.82834         1.70423
H          7.78953        27.14840         2.04202
H          6.65672        29.31577         2.38680
H          6.28933        35.99029         1.17858
H          7.45853        38.14081         0.62831
H         10.24162        22.91706         1.83525
H          8.99162        24.99289         1.84975
H          8.72403        40.28217         0.27145
H          9.93672        42.35841         0.04948
H         12.87504        18.93309         2.52504
H         11.51979        20.88497         2.03027
H         11.14096        44.47457        -0.01088
H         12.35227        46.59905         0.08188
H         15.66494        15.03091         3.63172
H         14.30728        17.01463         3.15858
H         13.58761        48.75887         0.20999
H         14.83803        50.89434         0.33048
H         18.18223        10.81993         4.20643
H         16.90361        12.90673         3.87525
H         16.10422        53.03451         0.45726
H         17.35954        55.15361         0.64654
H         20.82550         6.84607         5.27449
H         19.48652         8.79863         4.65515
H         18.66862        57.29208         0.36942
H         20.05135        59.27329        -0.09294
H         24.29769         3.62033         5.86479
H         22.15294         4.88115         5.89743
H         23.58052        62.55466        -0.08991
H         21.39516        61.36040        -0.32769
H         26.22518         4.42815         4.51483
H         27.22775         6.14947         3.03990
H         26.87215        59.04906         0.62805
H         25.69271        61.28150         0.16467
H         28.25991         7.89218         1.66868
H         29.41746         9.99135         0.63122
H         29.06129        54.80791         1.84217
H         27.96634        56.95262         1.30943
H         29.54956        11.86399        -1.58115
H         31.60112        14.03771        -0.70507
H         31.44098        50.55240         2.01144
H         30.20498        52.69154         2.08803
H         32.65178        16.28576        -0.29539
H         33.74529        18.53177         0.01852
H         33.86213        46.19916         2.31924
H         32.30280        48.17695         3.00639
H         34.95307        20.69263        -0.14396
H         36.13760        22.59017        -0.23997
H         36.38368        41.76797         1.74400
H         35.11761        44.06257         2.00456
H         37.15964        24.62563         0.07243
H         38.65774        26.50255         0.15974
H         38.75786        37.51203         1.39785
H         37.54475        39.62693         1.62133
H         39.92886        28.52187         0.78668
H         41.26818        30.77567         1.19544
H         41.22159        33.23741         1.30818
H         39.98152        35.32224         1.57502
