         252
 CSIRO Nanostructure Databank - Neutral Graphene Oxide Data Set
C         30.39164        31.85277         2.08723
C         30.30213        33.26134         1.94079
C         30.38415        36.11295         1.00079
C         30.48384        37.27747         0.57635
C         30.43495        40.21785        -0.44827
C         30.46433        41.44670        -0.68538
C         32.71610        29.17063         1.31905
C         31.56951        29.66923         1.57266
C         32.80719        31.76153         1.51846
C         31.55532        31.10676         1.64149
C         32.82673        33.20685         1.85614
C         31.50690        33.91479         1.82299
C         32.80858        36.17830         1.34585
C         31.49742        35.38487         1.62555
C         32.80449        37.42701         0.53186
C         31.62511        38.03315         0.15280
C         32.83884        40.17719        -0.47796
C         31.59442        39.27841        -0.68944
C         32.84361        41.55216        -0.64522
C         31.58123        42.30986        -0.39956
C         31.49887        44.51088         1.02949
C         31.53449        43.48372         0.29982
C         35.53785        27.52144         1.20759
C         35.18601        28.85975         0.73420
C         34.00071        29.64445         1.12041
C         35.25208        31.81349         0.91011
C         34.02244        31.07565         1.21085
C         35.29755        33.19389         1.04040
C         34.13992        33.93692         1.63503
C         35.36984        36.12736         1.13171
C         34.11224        35.44714         1.52525
C         35.36711        37.43320         0.44633
C         34.07400        37.97998        -0.09907
C         35.34384        40.12932        -0.56421
C         34.09879        39.51584         0.03465
C         35.33279        41.43935        -0.98066
C         34.09941        42.23852        -0.95719
C         35.31974        44.08729        -2.03757
C         34.11173        43.54164        -1.47391
C         35.54256        45.46726        -2.42317
C         37.89362        27.45857         0.75858
C         36.60594        26.90080         1.16215
C         37.81946        28.88448         0.45303
C         36.48550        29.56736         0.38900
C         37.77028        31.76707         0.27129
C         36.44753        31.07119         0.37801
C         37.79924        33.24536         0.48090
C         36.53171        33.95025         0.80516
C         37.83320        36.11464         1.21145
C         36.58755        35.30501         0.97658
C         37.80467        37.39260         0.39403
C         36.58612        38.01871         0.07667
C         37.87226        40.09438        -0.71378
C         36.58225        39.27794        -0.79223
C         37.84324        41.47414        -1.17354
C         36.58772        42.03427        -1.46653
C         38.28955        44.45754        -2.14476
C         36.44501        43.27631        -2.16002
C         37.99357        45.79714        -1.92807
C         36.64235        46.04634        -2.26949
C         40.30563        25.95463        -3.17180
C         39.26707        26.62472        -3.02470
C         40.21865        27.69383        -1.04561
C         38.97800        27.11096        -1.67459
C         40.23178        28.89289        -0.25355
C         39.00592        29.58444         0.12791
C         40.27662        31.65210         0.53131
C         39.05834        31.01548         0.28548
C         40.24249        33.00905         1.23421
C         39.11091        33.90865         0.75819
C         40.37678        36.02593         0.96190
C         39.10731        35.32948         1.11585
C         40.35839        37.29177         0.15728
C         39.05371        38.00133        -0.07122
C         40.31282        40.18156        -0.20851
C         39.04126        39.44912        -0.37622
C         40.40089        41.53564        -0.81505
C         39.16059        42.20943        -1.32831
C         40.35550        44.41332        -0.90312
C         39.30227        43.71160        -1.41825
C         40.36728        45.92589        -1.08898
C         38.87818        46.50197        -0.92690
C         40.03165        48.65879        -0.56426
C         39.10669        47.98264        -1.01968
C         42.90546        26.01335        -3.02016
C         41.56464        25.80334        -2.39544
C         42.63869        27.52128        -0.79174
C         41.43889        27.07127        -1.37074
C         42.69360        28.80095        -0.20185
C         41.47944        29.52722         0.01668
C         42.75097        31.56083         0.65458
C         41.51287        30.90939         0.46372
C         42.82330        32.99578         0.71508
C         41.67201        33.73256         1.39366
C         42.74027        35.79886        -0.00065
C         41.66710        35.25911         1.02101
C         42.81944        37.32329         0.17363
C         41.65003        38.02160         0.15672
C         42.90114        40.18311        -0.19770
C         41.62429        39.48793         0.08535
C         42.82553        41.62598        -0.32717
C         41.63288        42.29756        -0.47375
C         42.83634        44.54186        -0.36359
C         41.52626        43.77375        -0.18387
C         42.75240        45.97952        -0.20128
C         41.40165        46.61382        -0.18711
C         42.57363        48.75043         0.20719
C         41.25751        48.15212         0.06435
C         43.93381        26.29852        -2.38308
C         45.14032        27.23937        -0.19058
C         43.88250        26.60216        -0.86055
C         45.18787        28.78238        -0.24204
C         43.98004        29.42762         0.01650
C         45.35373        31.49372         0.66113
C         44.00697        30.78740         0.56450
C         45.32314        32.99360         0.93720
C         44.02699        33.65850         0.54119
C         45.22935        35.87957         0.81239
C         44.12305        35.08932         0.06808
C         45.27251        37.32549         0.32212
C         44.09979        38.02247         0.13749
C         45.36871        40.17868        -0.07500
C         44.10276        39.47409        -0.10362
C         45.38175        41.63222        -0.37739
C         44.08777        42.39155        -0.47170
C         45.33249        44.61297        -0.48441
C         44.05041        43.87796        -0.39716
C         45.23313        46.16095        -0.27187
C         43.91563        46.74016        -0.03555
C         43.62230        48.08861         0.34069
C         47.45424        27.45170        -1.00203
C         46.43276        26.79878        -0.80071
C         47.57822        28.91380        -1.25075
C         46.40860        29.53850        -0.42333
C         47.72843        31.67309        -0.14800
C         46.50666        30.88076        -0.04365
C         47.77842        32.99542         0.26767
C         46.56756        33.75231         0.55225
C         47.80884        35.88410         0.67995
C         46.54127        35.12154         0.63128
C         47.85396        37.31057         0.24365
C         46.55506        38.03335         0.11594
C         47.80448        40.19415         0.46971
C         46.56491        39.51278         0.15625
C         47.70313        41.69734         0.75196
C         46.66270        42.38320        -0.13542
C         47.80649        44.59933         0.46566
C         46.64330        43.88147        -0.19785
C         47.50110        45.99426         0.51920
C         46.47108        46.65800         0.34685
C         50.13660        29.07869        -0.81142
C         48.88707        29.54145        -0.87476
C         50.32499        31.70853        -0.54085
C         48.93125        31.08873        -0.90609
C         50.35338        33.09194         0.03358
C         49.09647        33.62818         0.69121
C         50.35704        35.89063         0.28126
C         49.09766        35.15514         0.72413
C         50.30549        37.38461         0.63489
C         49.11237        38.06155         0.54155
C         50.13188        40.20185         1.37464
C         48.98727        39.50675         0.71696
C         50.12991        41.72590         1.50096
C         49.08081        42.40461         0.60777
C         50.17805        44.41679         1.33032
C         48.93872        43.93155         0.82288
C         51.35800        29.46292        -0.53680
C         52.63824        31.57762         0.19364
C         51.57108        30.80242        -0.35356
C         52.63379        32.73919         0.64877
C         51.60351        33.73050         0.60973
C         52.55067        36.01937         1.25199
C         51.58668        35.07882         0.81406
C         52.63326        37.24484         1.43150
C         51.62109        38.17180         0.76878
C         52.37254        40.32511         1.98528
C         51.43190        39.47949         1.48390
C         52.42992        41.59697         2.21083
C         51.42305        42.45352         1.83313
C         51.22857        43.86643         1.72495
O         33.76103        33.46814         2.95881
O         40.83141        40.13711         1.16322
O         41.32983        36.11786         2.09359
O         36.93914        31.52481        -0.92503
O         49.65072        40.90375         2.59833
O         50.48870        32.89725        -1.40401
O         32.11158        36.20868         2.63328
O         38.58785        33.82634        -0.62233
O         43.58672        25.45418        -0.20643
O         48.53734        35.68138         1.96098
O         35.57735        29.01229        -0.64818
O         45.42101        45.58384        -1.57254
O         47.30381        37.51878        -1.08552
O         37.49545        43.68918        -3.01451
O         42.18833        35.54990        -1.24265
O         47.14493        43.06748        -1.32359
O         40.92642        47.17310         1.07811
O         39.71482        37.17840        -1.13796
O         44.82946        30.77666         1.81282
O         34.92359        36.12109         2.55664
O         40.09046        41.53676        -2.25536
O         42.03943        33.66047         2.71539
O         44.80271        41.92530        -1.68326
O         37.91105        26.85341        -1.10573
O         49.24629        33.18221         2.06722
H         48.74382        33.81630         2.63184
O         34.13317        39.74858         1.47251
H         34.08319        40.71415         1.63694
O         31.56821        38.89137        -2.05928
H         31.46428        39.68878        -2.61827
O         47.20532        41.87138         2.09288
H         47.86115        41.45291         2.70577
O         34.04128        37.59997        -1.49512
H         34.86143        37.93649        -1.94039
O         41.18761        43.87382         1.23824
H         41.78947        43.29218         1.74922
O         49.57831        42.19230        -0.72118
H         48.92875        42.58191        -1.35837
O         36.47932        38.76920        -2.16774
H         36.66062        39.51083        -2.78443
O         37.77427        36.54340         2.62272
H         36.86302        36.41118         2.97578
O         33.00874        44.29036        -1.57757
H         33.23999        45.17835        -1.92209
O         44.90996        35.95146         2.21376
H         44.91675        35.02952         2.57811
O         29.40804        31.15393         2.60795
H         29.60366        30.19235         2.54085
O         45.06406        26.90880         1.17873
H         44.61082        26.02589         1.20836
O         48.67391        31.44226        -2.28451
H         49.21707        32.24809        -2.48303
O         47.30130        29.16869        -2.62403
H         47.77637        29.98863        -2.90035
O         38.39458        46.19640         0.36258
H         39.00619        46.60095         1.02372
O         39.82147        32.66181         2.57190
H         40.59516        32.93142         3.15781
O         39.03016        26.93051         1.19736
H         38.91483        26.00489         1.49124
O         52.06884        38.42751        -0.56911
H         52.89779        38.94987        -0.52809
O         45.28030        33.18164         2.39321
H         44.76776        32.42069         2.76526
O         44.57574        34.95033        -1.29654
H         43.73993        35.07236        -1.83760
O         41.54874        24.63413        -1.65472
H         42.39092        24.63748        -1.09703
O         50.40596        35.81672        -1.15209
H         51.10540        36.42834        -1.47023
O         40.82793        46.19965        -2.42448
H         40.32751        45.65215        -3.06555
