         634
 CSIRO Nanostructure Databank - Neutral Graphene Oxide Data Set
C         23.01266        69.56443         1.11264
C         22.98384        70.95297         1.38744
C         21.76194        71.66190         1.54876
C         22.96669        73.73888         1.90837
C         21.76797        73.03203         1.80712
C         25.42288        65.51119        -0.20932
C         25.44102        66.79388         0.35926
C         24.25162        67.48470         0.61146
C         25.46137        69.56774         1.15763
C         24.23233        68.86439         1.00037
C         25.45366        70.97479         1.32662
C         24.21699        71.66999         1.47749
C         25.44203        73.77427         1.83852
C         24.21349        73.07779         1.74142
C         27.82055        61.35705        -1.18512
C         27.77312        62.80030        -1.61702
C         26.57002        63.52095        -1.07677
C         27.89589        65.50300        -0.46108
C         26.62071        64.79995        -0.55036
C         27.93193        66.87630         0.00482
C         26.77407        67.29859         0.89438
C         27.89941        69.67172         0.76877
C         26.77265        68.83062         1.33008
C         27.90718        71.05701         1.00794
C         26.68398        71.71362         1.36482
C         27.91482        73.82413         1.69206
C         26.67826        73.11824         1.63648
C         30.34299        57.23014        -0.48053
C         30.30033        58.58858        -0.85513
C         29.09053        59.30290        -0.80670
C         30.22921        61.34452        -1.81473
C         29.00596        60.65949        -1.21542
C         30.24684        62.78510        -1.34756
C         29.08087        63.47718        -1.25576
C         30.33313        65.56994        -0.79767
C         29.07697        64.87509        -0.85476
C         30.31834        67.07244        -0.80550
C         29.07699        67.61157        -0.11880
C         30.37395        69.83046         0.15368
C         29.03808        69.06187         0.12690
C         30.36721        71.16357         0.75946
C         29.14434        71.80250         1.00968
C         30.38083        73.86803         1.55589
C         29.14087        73.18956         1.42559
C         32.80885        53.07533         0.36364
C         32.78731        54.41736        -0.06724
C         31.58000        55.14807        -0.09076
C         32.78097        57.16048        -0.86979
C         31.55109        56.50297        -0.47083
C         32.74613        58.51933        -1.25015
C         31.53547        59.25464        -1.24686
C         32.77300        61.34582        -1.67187
C         31.54400        60.63406        -1.56840
C         32.71136        62.86558        -1.77673
C         31.55747        63.37631        -0.90740
C         32.77935        65.55360        -0.65891
C         31.53327        64.88189        -0.85185
C         32.78070        66.90647        -0.24890
C         31.59596        67.67558        -0.24451
C         32.81893        69.70761         0.50981
C         31.61507        69.03799         0.14954
C         32.81807        71.10989         0.77417
C         31.61923        71.82074         0.95125
C         32.84586        73.86925         1.59605
C         31.61799        73.21877         1.35453
C         35.22009        48.87081         1.31388
C         35.17499        50.22015         0.86327
C         33.99948        50.98999         0.87186
C         35.24945        52.97681         0.04822
C         34.00470        52.33234         0.42068
C         35.23408        54.31732        -0.37300
C         34.02299        55.06369        -0.45839
C         35.23394        57.11176        -1.24194
C         34.00637        56.42498        -0.86972
C         35.24476        58.44924        -1.52434
C         33.96419        59.16960        -1.84669
C         35.26555        61.35360        -1.73461
C         34.00050        60.67106        -1.67909
C         35.25404        62.87252        -1.93458
C         34.01227        63.54230        -1.40414
C         35.27716        65.53259        -0.66143
C         34.02885        64.82396        -0.87462
C         35.29216        66.84817        -0.13316
C         34.02258        67.46276         0.39898
C         35.26685        69.61146         0.70855
C         34.06543        68.97410         0.47557
C         35.26661        70.98745         1.32885
C         34.13926        71.85269         0.76233
C         35.27831        73.80099         1.82589
C         34.09893        73.20699         1.44319
C         37.64949        44.65035         2.12600
C         37.65094        46.03184         1.85332
C         36.45140        46.78121         1.82676
C         37.61789        48.65326         0.75088
C         36.40862        48.10392         1.33176
C         37.50905        49.95566         0.06417
C         36.38544        50.85189         0.39550
C         37.84652        52.81596        -0.09205
C         36.45798        52.19121         0.05859
C         37.80386        54.27102        -0.53288
C         36.51588        55.02166        -0.62940
C         37.76933        57.03513        -1.54682
C         36.45044        56.24918        -1.52941
C         37.71016        58.52210        -1.21517
C         36.51569        59.14819        -1.94257
C         37.76638        61.33733        -1.91244
C         36.46540        60.65993        -1.76006
C         37.78891        62.89114        -1.77682
C         36.52159        63.54921        -1.48682
C         37.75862        65.55974        -0.87509
C         36.51501        64.85431        -0.98386
C         37.70749        66.99725        -0.58975
C         36.48211        67.58211        -0.02550
C         37.72717        69.65088         0.59731
C         36.52205        68.93896         0.46348
C         37.76021        71.04749         0.96949
C         36.58491        71.71175         1.26189
C         37.72545        73.93966         1.19001
C         36.61520        73.10513         1.84852
C         40.11190        40.41468         2.08043
C         40.16437        41.80624         2.26792
C         38.92151        42.53005         2.31536
C         40.12590        44.67271         2.18632
C         38.85708        43.90829         2.17617
C         40.10783        46.00498         1.54814
C         38.90409        46.66695         1.43735
C         40.01785        48.50239         0.15206
C         38.82821        47.98139         0.81995
C         39.83981        49.55479        -0.69443
C         38.68301        50.47209        -0.69544
C         40.24231        52.70279        -1.05643
C         38.89951        51.98095        -0.86325
C         40.26443        54.19565        -0.88556
C         39.06858        54.88216        -0.99785
C         40.25721        57.12950        -0.97902
C         39.06228        56.32858        -1.29096
C         40.23941        58.49908        -1.14622
C         39.03300        59.22758        -1.43490
C         40.25138        61.37110        -1.55805
C         39.04074        60.63063        -1.62304
C         40.28516        62.79786        -1.44360
C         39.04918        63.53785        -1.41044
C         40.24218        65.65270        -0.89533
C         38.99962        64.90884        -1.04714
C         40.24796        66.97707        -0.57350
C         38.99564        67.73550        -0.41722
C         40.28715        69.68897         0.51320
C         39.01521        68.88028         0.56766
C         40.26285        71.08308         0.92461
C         39.04693        71.75946         1.04376
C         40.22744        73.90288         1.20901
C         39.04768        73.19720         1.18762
C         42.28887        36.17357         0.87597
C         42.36347        37.52823         1.28187
C         41.20406        38.29294         1.53285
C         42.56496        40.32856         1.92307
C         41.28689        39.66865         1.85009
C         42.64995        41.73439         2.17781
C         41.43370        42.46851         2.30975
C         42.71644        44.70245         2.20942
C         41.43144        43.94016         2.39009
C         42.61092        46.01465         1.55808
C         41.36091        46.44453         0.80296
C         42.69708        48.47619        -0.12255
C         41.38591        47.99576         0.62566
C         42.79821        49.97493        -0.34616
C         41.75855        50.65646        -0.96310
C         42.74954        52.79871        -0.66062
C         41.58546        52.05544        -0.93524
C         42.72668        54.24710        -0.71130
C         41.50368        54.92027        -0.78549
C         42.76541        57.09608        -0.95437
C         41.49284        56.41190        -0.49682
C         42.77268        58.48148        -1.11958
C         41.50625        59.27773        -0.86172
C         42.78688        61.36378        -1.29118
C         41.54228        60.59012        -1.65245
C         42.76059        62.77536        -1.11369
C         41.51430        63.48260        -1.21736
C         42.72323        65.63226        -0.59905
C         41.54215        64.98874        -1.28824
C         42.72996        66.97518        -0.37736
C         41.50554        67.80495        -0.64442
C         42.73827        69.63062         0.74486
C         41.45957        69.06260         0.19498
C         42.72242        71.12713         0.85366
C         41.52433        71.80343         1.01196
C         42.69716        73.97713         1.15967
C         41.51375        73.25316         1.15628
C         44.57062        33.32389         0.03482
C         43.39891        34.04816         0.23494
C         44.73902        36.02939         0.78843
C         43.45521        35.41605         0.62211
C         44.82365        37.39281         1.18893
C         43.64657        38.15521         1.43776
C         45.02312        40.15082         1.98654
C         43.74277        39.54216         1.76439
C         45.11879        41.59703         1.95809
C         43.95751        42.37143         2.13116
C         45.31538        44.50487         1.75984
C         44.06986        43.86739         2.21746
C         45.52467        45.86891         1.82808
C         43.66464        46.91537         1.57901
C         45.16461        48.62535         0.59850
C         43.88832        48.01137         0.70591
C         45.20539        50.00548         0.15991
C         43.98848        50.70971        -0.11878
C         45.21383        52.83601        -0.39606
C         43.98085        52.11492        -0.38905
C         45.23055        54.23863        -0.68107
C         43.97916        54.96309        -0.77046
C         45.23011        57.02515        -1.49225
C         43.97320        56.34643        -1.00798
C         45.24021        58.51262        -1.25878
C         44.00752        59.20213        -1.24583
C         45.23473        61.34524        -1.07593
C         43.99654        60.64738        -1.20167
C         45.21872        62.76245        -0.86220
C         43.97527        63.44855        -0.80529
C         45.21090        65.61727        -0.43326
C         43.93486        64.83318        -0.21198
C         45.19945        66.97990        -0.42147
C         43.97058        67.70440        -0.17228
C         45.23933        69.79393         0.19465
C         43.99401        69.04358         0.15618
C         45.25412        71.14612         0.61273
C         44.00829        71.78435         1.08225
C         45.26555        74.01460         0.97015
C         43.99965        73.32159         1.26406
C         45.82607        33.91286         0.21848
C         47.20518        35.90051         0.77569
C         45.93652        35.27007         0.60689
C         47.31726        37.24081         1.16627
C         46.09527        37.95178         1.49166
C         47.60353        40.15230         0.57969
C         46.10964        39.20967         2.16361
C         47.65805        41.50119         1.28710
C         46.32585        42.26685         1.23980
C         47.70960        44.36361         0.88141
C         46.58605        43.70245         1.66943
C         47.70742        45.76178         0.73223
C         46.56803        46.54851         1.12345
C         47.63884        48.56224         0.30514
C         46.43695        47.91901         0.76056
C         47.66065        49.99518         0.10845
C         46.42285        50.71020         0.03987
C         47.67682        52.80268        -0.32545
C         46.43385        52.11945        -0.21880
C         47.69800        54.21124        -0.58996
C         46.46370        54.92027        -0.79914
C         47.68754        57.04336        -1.04220
C         46.49917        56.33901        -1.05927
C         47.71938        58.49031        -1.07707
C         46.46859        59.20548        -1.16337
C         47.69946        61.33518        -0.93770
C         46.46740        60.63436        -1.06514
C         47.68825        62.75397        -0.76806
C         46.45887        63.44036        -0.69174
C         47.73634        65.59336        -0.62708
C         46.49205        64.86385        -0.21940
C         47.72907        67.04386        -0.77566
C         46.42187        67.78022        -0.65955
C         47.68006        69.88224        -0.15776
C         46.44982        69.18518        -0.21710
C         47.67844        71.23117         0.26057
C         46.46639        71.87976         0.59937
C         47.68783        74.06022         0.53649
C         46.44079        73.33360         0.77353
C         48.60431        37.89553         1.08242
C         49.98875        39.97562         0.73405
C         48.77493        39.27039         0.86879
C         50.01467        41.39919         0.50313
C         48.83256        42.19314         0.62171
C         50.06670        44.24763         0.01549
C         48.86076        43.59802         0.48911
C         49.99867        45.65192        -0.22625
C         48.83851        46.41832         0.15428
C         49.98635        48.56769        -0.56638
C         48.80996        47.82032         0.03025
C         50.15791        49.90711         0.11815
C         48.87354        50.68029        -0.03398
C         50.15680        52.75048        -0.38455
C         48.89949        52.07661        -0.23877
C         50.15512        54.17539        -0.49031
C         48.93108        54.88282        -0.64580
C         50.16709        57.06927        -0.61009
C         48.99308        56.30258        -1.14009
C         50.16207        58.44196        -0.59703
C         48.93012        59.17817        -0.88004
C         50.13427        61.33225        -0.64072
C         48.93690        60.62079        -0.84030
C         50.15814        62.76723        -0.65805
C         48.93183        63.46923        -0.66781
C         50.19723        65.62505        -0.69756
C         48.94995        64.90780        -0.65238
C         50.19618        67.06031        -0.62000
C         48.98203        67.77780        -0.57561
C         50.16409        69.89663        -0.42343
C         48.95204        69.18872        -0.41734
C         50.10291        71.40378        -0.46615
C         49.00018        71.93725         0.47425
C         50.11512        74.23371        -0.03020
C         48.87941        73.44223         0.35454
C         51.23161        42.08444         0.28551
C         52.62424        44.05729         0.08357
C         51.30836        43.47671         0.04133
C         52.93526        45.32426        -0.44831
C         51.09222        46.38734        -0.76993
C         52.53049        48.41441        -0.61064
C         51.27091        47.77261        -0.59435
C         52.54656        49.86383        -0.61564
C         51.39514        50.60853        -0.39109
C         52.61525        52.75512        -0.62249
C         51.38266        52.03919        -0.46531
C         52.61207        54.18695        -0.50467
C         51.38741        54.87251        -0.43139
C         52.64692        57.04028        -0.27231
C         51.35084        56.32192        -0.05985
C         52.60431        58.47300        -0.17319
C         51.39489        59.14907        -0.25182
C         52.61930        61.39528        -0.09713
C         51.34468        60.62127        -0.18898
C         52.64938        62.70479        -0.87114
C         51.38934        63.49630        -0.68563
C         52.69166        65.62894        -0.79926
C         51.42501        64.90389        -0.73377
C         52.66784        67.07902        -0.71098
C         51.43111        67.77748        -0.57822
C         52.64584        69.91015        -0.39053
C         51.40630        69.20459        -0.49837
C         52.63702        71.35926        -0.18887
C         51.41615        72.07318        -0.14823
C         52.61971        74.14105         0.27589
C         51.41294        73.46382         0.06887
C         53.89109        46.27934        -0.10015
C         54.97095        48.43857        -0.24651
C         53.80720        47.69834        -0.40828
C         55.03302        49.94006        -0.23308
C         53.84158        50.56185        -0.97721
C         55.06293        52.76190        -0.74316
C         53.83435        52.06043        -0.75635
C         55.06987        54.19412        -0.64604
C         53.85485        54.90317        -0.50377
C         55.10142        57.07373        -0.51436
C         53.84737        56.34121        -0.38106
C         55.11229        58.44665        -0.41788
C         53.91037        59.13563         0.21428
C         55.15635        61.37965        -0.34091
C         53.92053        60.65885         0.06174
C         55.10681        62.80871        -0.69861
C         53.92814        63.49704        -0.72796
C         55.19479        65.63987        -0.90626
C         53.91166        64.94065        -0.83574
C         55.11798        67.12429        -1.23179
C         53.87725        67.80751        -0.68666
C         55.11863        69.90175         0.01576
C         53.85980        69.19957        -0.44261
C         55.14888        71.36804        -0.39023
C         53.85034        72.06427        -0.06261
C         55.10925        74.12199         0.44140
C         53.85094        73.45264         0.19561
C         56.33810        50.52605        -0.80688
C         57.50569        52.74302        -0.71979
C         56.32084        52.04780        -0.77018
C         57.55432        54.18188        -0.68441
C         56.32078        54.91552        -0.67944
C         57.58695        57.02277        -0.62305
C         56.34018        56.32562        -0.67751
C         57.62276        58.44602        -0.59886
C         56.34133        59.18427        -0.89835
C         57.60590        61.34651        -0.43405
C         56.40016        60.63781        -0.55147
C         57.58901        62.75873        -0.42423
C         56.41182        63.45519        -1.06055
C         57.73777        65.61615        -1.18080
C         56.38500        64.96107        -0.93003
C         57.73352        67.13645        -0.98578
C         56.41948        67.88876        -0.98152
C         57.60406        69.90854        -0.14755
C         56.41624        69.23317        -0.38559
C         57.57806        71.32565         0.23101
C         56.38101        72.04505         0.17543
C         57.53237        74.16817         0.99907
C         56.30770        73.44041         0.49353
C         58.77282        54.87313        -0.60237
C         60.02629        57.01066        -0.34386
C         58.81041        56.28644        -0.53596
C         60.04110        58.39059        -0.23752
C         58.82654        59.13531        -0.40108
C         60.03529        61.27701        -0.10700
C         58.85710        60.59335        -0.30385
C         60.02409        62.73657         0.17648
C         58.72101        63.54665         0.15944
C         60.08035        65.63139        -0.27418
C         58.87478        64.93355        -0.44471
C         60.11459        67.07878        -0.27380
C         58.91903        67.81701        -0.43023
C         60.08032        69.88355         0.19789
C         58.87673        69.20647        -0.17577
C         60.04487        71.27915         0.54328
C         58.81360        71.99131         0.56374
C         60.00716        74.04413         1.15455
C         58.81764        73.38374         0.88947
C         61.33431        59.08926         0.13598
C         62.49738        61.27790        -0.13848
C         61.32361        60.59354        -0.05994
C         62.54587        62.75604        -0.44101
C         61.31559        63.46593         0.08282
C         62.53131        65.61633         0.04873
C         61.30781        64.93906        -0.03330
C         62.54983        67.02829         0.07760
C         61.33778        67.75783        -0.00237
C         62.51634        69.84522         0.64098
C         61.31513        69.17975         0.22703
C         62.45686        71.20650         1.02570
C         61.25557        71.93286         0.92981
C         62.45628        74.03751         1.44299
C         61.25064        73.35564         1.19976
C         63.78479        63.48238         0.02398
C         64.98317        65.57464         0.50660
C         63.78130        64.84750         0.18388
C         65.03201        66.95812         0.54231
C         63.85600        67.77056         0.05220
C         64.96003        69.78881         1.03445
C         63.76544        69.14184         0.67365
C         64.95429        71.17256         1.38670
C         63.64363        71.84388         1.69585
C         64.89884        74.00304         1.75158
C         63.68706        73.34842         1.57096
C         66.21244        67.66245         0.89122
C         67.41535        69.76878         1.33319
C         66.21794        69.05928         1.05082
C         67.40837        71.14810         1.56303
C         66.15149        71.85853         1.60026
C         67.35341        73.94931         2.04377
C         66.14340        73.29056         1.82898
C         68.61589        71.88105         1.80782
C         68.57845        73.23768         2.04486
O         57.27256        67.83352        -2.19366
O         39.32560        52.37717        -2.17878
O         29.54819        69.80419        -1.06222
O         44.12073        72.39994         2.41129
O         44.65693        46.69693         2.54575
O         52.05201        45.70737        -1.49627
O         60.83247        63.00907         1.39498
O         38.57622        56.67307        -2.69172
O         43.52229        44.51951         3.40458
O         27.01728        66.49971         2.03868
O         40.73257        44.56324         3.53520
O         38.27235        67.90191        -1.66140
O         37.31444        55.15619         0.59388
O         37.56440        49.89506        -1.44680
O         51.80669        61.28173         1.08677
O         46.87480        39.95809        -0.39267
O         37.83644        62.20338        -3.09579
O         54.71920        61.25800         1.13431
O         40.81670        49.87656        -1.63393
O         46.98518        67.53753        -1.99227
O         64.14316        68.02161        -1.37777
H         63.38436        68.52566        -1.74204
O         45.21121        56.85872        -2.96648
H         44.40011        57.30266        -3.29649
O         41.51302        48.57778         1.94564
H         40.84473        48.16528         2.53414
O         41.47530        56.56075         0.98082
H         42.23291        56.04635         1.33455
O         49.74203        71.76046        -1.82777
H         49.88560        72.73256        -1.93680
O         62.48488        62.89731        -1.90114
H         63.34876        62.61329        -2.26651
O         41.72469        65.34028        -2.72033
H         40.96156        64.96352        -3.21008
O         41.49771        59.58528         0.55586
H         41.49794        58.72353         1.03472
O         57.66490        75.44593         0.35640
H         57.85711        75.29221        -0.59104
O         41.68150        60.18428        -3.05171
H         41.54829        60.97638        -3.61318
O         54.99907        50.34377         1.16472
H         54.23158        49.90574         1.58933
O         31.82786        62.88388         0.44004
H         31.12090        63.21595         1.03264
O         55.06187        69.88451         1.47393
H         54.91763        68.96138         1.76876
O         45.89790        42.37324        -0.13144
H         45.95911        41.46907        -0.53746
O         51.15304        56.30956         1.41576
H         51.48872        57.16641         1.76073
O         46.58730        64.75612         1.26457
H         45.70032        64.43308         1.56854
O         35.20481        63.03130        -3.40508
H         36.07195        62.69017        -3.74131
O         37.40864        58.64029         0.20231
H         38.16057        58.27239         0.71339
O         27.66231        62.81694        -3.09414
H         27.75379        63.75032        -3.38290
O         30.24228        67.46555        -2.21672
H         30.05530        68.43749        -2.21905
O         58.34845        63.80032         1.56081
H         59.18280        63.71458         2.08325
O         41.29448        45.78849        -0.48313
H         41.93593        46.25234        -1.08023
O         34.97515        70.80215         2.75644
H         35.50488        70.03837         3.06992
O         54.03173        58.85984         1.64463
H         54.47938        59.64649         2.04102
O         49.65282        48.85305        -1.95643
H         49.51467        48.00054        -2.41987
O         47.02436        39.31298         3.13340
H         47.11485        40.23781         3.47088
O         62.44460        58.49590        -0.54749
H         62.30262        58.60147        -1.51027
O         52.65145        62.25466        -2.27425
H         52.80994        63.03736        -2.84429
O         41.59833        68.24972        -2.03535
H         41.68432        67.43240        -2.58300
O         36.97399        72.96076         3.25684
H         36.27841        72.39330         3.65932
O         58.03171        65.40567        -2.60991
H         57.62965        66.17933        -3.07760
O         48.12402        41.38846         2.65953
H         48.13840        42.30759         3.02983
O         50.36868        49.65346         1.53730
H         50.37618        50.51774         1.99934
O         34.47642        72.08542        -0.63490
H         33.76082        72.62394        -1.03317
O         55.27387        71.40069        -1.84506
H         55.22591        72.33773        -2.12833
O         33.85190        58.96870        -3.32545
H         33.62131        58.02477        -3.47071
O         43.83971        64.60831         1.25556
H         43.58826        65.46425         1.66633
O         56.20569        59.17467        -2.38143
H         56.92509        59.73409        -2.74633
O         37.35265        74.24090        -0.16243
H         37.13180        73.39933        -0.61461
O         56.55859        63.17858        -2.51101
H         57.18607        63.86777        -2.85943
O         57.44558        50.02562        -0.05882
H         57.22951        50.16653         0.88811
O         54.08109        50.31996        -2.39450
H         53.28866        50.61698        -2.88895
O         32.42465        63.22604        -3.14446
H         33.24689        63.07003        -3.66605
O         33.94372        67.03566         1.81321
H         33.11203        67.40100         2.18367
O         49.96613        74.60051        -1.42624
H         49.10389        75.05413        -1.53239
O         49.43698        71.63755         1.82995
H         48.73371        71.93021         2.44690
O         36.21495        55.73275        -2.86397
H         37.03591        55.90689        -3.38670
O         30.04420        61.33647        -3.25774
H         29.19591        61.81389        -3.44434
O         49.24006        56.18536        -2.59962
H         48.39217        55.92066        -3.01861
O         39.09197        68.20116         1.87751
H         39.35999        68.86707         2.54627
O         36.68900        58.93625        -3.36193
H         35.80582        59.08191        -3.77944
O         42.75669        47.82709        -1.42368
H         42.13929        48.31925        -2.01368
O         26.97689        68.82612         2.77015
H         27.03715        67.84342         2.99787
O         38.39680        52.81853         1.26201
H         37.98012        53.57988         1.72883
O         47.05435        43.68185         3.07273
H         47.03716        44.60363         3.41074
O         42.76110        69.17519         2.16546
H         43.35358        69.78483         2.65793
O         54.89638        67.13299        -2.67828
H         55.01894        68.05415        -2.99272
O         63.42966        71.59090         3.14257
H         64.17678        72.01310         3.61881
H         22.95462        74.81780         2.11934
H         25.43348        74.85442         2.04758
H         27.90635        74.89123         1.95961
H         30.37845        74.92277         1.86940
H         32.83676        74.89819         1.98710
H         35.24615        74.80573         2.27737
H         37.83717        74.91346         1.72713
H         40.20105        74.99969         1.29687
H         42.66382        75.07457         1.08176
H         45.26366        75.11533         0.93685
H         47.62820        75.16092         0.48836
H         50.17549        75.17830         0.58210
H         52.61559        75.22488         0.46490
H         55.09422        75.19416         0.68656
H         57.36574        74.39133         2.09071
H         59.98342        75.12320         1.36682
H         62.44620        75.13603         1.51352
H         64.92024        75.10302         1.79529
H         67.35840        75.03635         2.20851
H         22.06550        69.02009         0.98149
H         20.80979        71.11758         1.47336
H         20.81420        73.56328         1.93522
H         24.45510        65.05905        -0.48266
H         23.28772        66.98173         0.43196
H         26.89961        60.87299        -0.82555
H         25.59277        63.02668        -1.19317
H         29.41046        56.72475        -0.18826
H         28.18368        58.79735        -0.44023
H         31.86566        52.59649         0.66628
H         30.64477        54.65186         0.20795
H         34.29558        48.41875         1.70384
H         33.05244        50.54052         1.20525
H         36.69057        44.12868         2.26449
H         35.52037        46.30710         2.17186
H         39.13559        39.90984         2.04184
H         37.98942        41.94684         2.36343
H         41.30157        35.70370         0.75218
H         40.21311        37.82187         1.45238
H         44.50971        32.26792        -0.26472
H         42.42013        33.56486         0.10440
H         46.73861        33.31922         0.06481
H         48.11384        35.33503         0.51966
H         49.49857        37.25091         1.08311
H         50.94652        39.43493         0.78551
H         52.16977        41.50984         0.31189
H         53.40614        43.48563         0.60628
H         54.74061        45.96381         0.52435
H         55.89570        47.90800         0.03111
H         56.46003        50.18365        -1.86583
H         58.45283        52.18310        -0.69664
H         59.71528        54.30666        -0.56381
H         60.97035        56.45519        -0.24023
H         61.50762        58.89707         1.23287
H         63.44351        60.71360        -0.11455
H         64.72954        62.92385         0.11968
H         65.89455        64.99802         0.73002
H         67.13465        67.09575         1.09220
H         68.36890        69.22023         1.35382
H         69.57496        71.34347         1.80004
H         69.51306        73.78719         2.22647
