         344
 CSIRO Nanostructure Databank - Neutral Graphene Oxide Data Set
C          1.52165         3.56879         2.05847
C          0.27941         4.22959         2.15340
C          1.02173         6.58228         2.02543
C          0.00576         5.58822         1.96521
C          1.16751         7.81434         1.39622
C          0.01328         8.45827         0.83218
C          1.26022        10.51660         0.32870
C          0.00470         9.74832         0.40851
C          1.23313        11.98926         0.19559
C          0.07491        12.71446         0.27558
C          1.20784        14.85734        -0.09825
C          0.08186        14.15089         0.22405
C          1.21717        16.31822        -0.21244
C          0.02009        17.05322        -0.05904
C          1.16711        19.15602        -0.46845
C         -0.00703        18.43270        -0.23388
C          1.11124        20.63128        -0.80694
C         -0.03407        21.37926        -0.17979
C          1.19355        23.49483        -0.30767
C          0.00216        22.72928        -0.04630
C          1.18601        24.92697        -0.25834
C         -0.02597        25.67239        -0.16866
C          1.19906        27.77313        -0.09167
C         -0.02239        27.05179        -0.10660
C          1.22309        29.21852        -0.00451
C          3.85444         3.44798         1.16313
C          2.75015         4.16321         1.67649
C          3.81069         6.34878         1.04612
C          2.93930         5.58645         1.79986
C          3.76889         7.78689         0.99557
C          2.51904         8.53325         1.54533
C          3.76906        10.72879         1.11208
C          2.51839         9.89465         0.86364
C          3.67165        12.12605         0.52905
C          2.50952        12.69354         0.10786
C          3.71272        14.87147        -0.35137
C          2.44589        14.07433        -0.51414
C          3.66956        16.29211        -0.86534
C          2.40548        17.03200        -0.48530
C          3.64038        19.19353        -0.66242
C          2.39814        18.45292        -0.55441
C          3.63576        20.62584        -0.64061
C          2.42140        21.35379        -0.60136
C          3.65847        23.48823        -0.55546
C          2.42488        22.77539        -0.49870
C          3.67512        24.93081        -0.47168
C          2.41902        25.65034        -0.29618
C          3.71275        27.78196         0.03301
C          2.40911        27.05673        -0.18475
C          3.67647        29.28013        -0.17126
C          2.38461        29.93020        -0.05308
C          6.14222         3.47032         0.36661
C          4.94099         4.14215         0.59561
C          6.02929         6.37344        -0.07961
C          4.75362         5.58510         0.14780
C          6.00749         7.75017        -0.09540
C          4.85235         8.49900         0.43210
C          6.08231        10.65532         0.12469
C          4.94415         9.94878         0.49669
C          6.15252        12.09409         0.19896
C          4.95150        12.91025         0.64286
C          6.14819        14.96216        -0.12039
C          4.89685        14.26465        -0.02492
C          6.13714        16.38721        -0.34341
C          4.91769        17.07198        -0.55986
C          6.12050        19.21100        -0.57294
C          4.88679        18.48793        -0.61097
C          6.12024        20.64010        -0.62020
C          4.88230        21.34534        -0.63357
C          6.13121        23.46202        -0.78600
C          4.88806        22.76825        -0.65989
C          6.14879        24.94746        -1.04763
C          4.86258        25.62547        -0.65160
C          6.15501        27.87204        -0.75692
C          4.86585        27.10210        -0.66636
C          6.17866        29.40223        -0.64462
C          4.82946        29.99269        -0.29500
C          8.54892         3.48985        -0.03021
C          7.31988         4.14061        -0.03509
C          8.53496         6.32558        -0.50956
C          7.24787         5.57714        -0.40185
C          8.48456         7.81642        -0.19810
C          7.19341         8.47493        -0.77818
C          8.57039        10.65444        -0.36086
C          7.20793        10.03992        -0.69245
C          8.59486        12.05395        -0.21889
C          7.34284        12.77770        -0.05292
C          8.60037        14.92055        -0.13485
C          7.36934        14.23244        -0.06393
C          8.62575        16.41237         0.08183
C          7.35163        17.10874        -0.30101
C          8.59904        19.22247        -0.56858
C          7.35229        18.50439        -0.48203
C          8.59586        20.62454        -0.64109
C          7.35177        21.35363        -0.64233
C          8.63814        23.51346        -1.01111
C          7.33744        22.77244        -0.76550
C          8.62528        24.94365        -0.51636
C          7.30950        25.62493        -0.29197
C          8.55337        27.77381        -0.12017
C          7.40210        27.12107        -0.51651
C          8.53599        29.20689         0.19508
C          7.34560        29.91441         0.15310
C         10.99863         3.47480        -0.02806
C          9.80062         4.16560        -0.17987
C         10.99268         6.32792        -0.38213
C          9.81944         5.61705        -0.31897
C         10.99844         7.78118        -0.48916
C          9.79697         8.50390        -0.49230
C         11.04249        10.62874        -0.47017
C          9.79337         9.93285        -0.47156
C         11.04367        12.04043        -0.32949
C          9.83841        12.76483        -0.21823
C         11.03825        14.95457        -0.36170
C          9.83875        14.22292        -0.19666
C         11.05561        16.37956        -0.56525
C          9.85209        17.10107        -0.46322
C         11.05869        19.20755        -0.89974
C          9.84044        18.50438        -0.63570
C         11.03631        20.64588        -0.91098
C          9.84422        21.32263        -0.71382
C         11.10890        23.52282        -0.49576
C          9.80378        22.77990        -0.35626
C         11.08139        24.90899        -0.30366
C          9.80059        25.60986        -0.26015
C         10.99100        27.69781         0.29886
C          9.79507        27.03502         0.02757
C         10.97337        29.11645         0.62156
C          9.75103        29.81445         0.62792
C         13.41148         3.53175         0.34732
C         12.26045         4.15969        -0.03140
C         13.51422         6.35013        -0.25588
C         12.27860         5.56557        -0.59126
C         13.50974         7.75807        -0.42634
C         12.26358         8.47755        -0.52780
C         13.54680        10.57467        -0.56371
C         12.28155         9.89126        -0.53316
C         13.57944        12.03038        -0.61811
C         12.33597        12.74357        -0.24537
C         13.51782        14.93704        -0.81773
C         12.32211        14.25219        -0.32020
C         13.52747        16.32252        -0.94487
C         12.28029        17.08204        -0.83930
C         13.58019        19.16110        -1.40750
C         12.27290        18.47752        -1.00774
C         13.59720        20.68682        -1.22584
C         12.29436        21.42160        -1.07313
C         13.56563        23.51920        -0.52744
C         12.33637        22.83700        -0.63933
C         13.54983        24.91876        -0.18844
C         12.29949        25.61343        -0.09617
C         13.46063        27.67814         0.53175
C         12.25867        26.99942         0.24705
C         13.42868        29.08215         0.88322
C         12.18732        29.76542         0.92179
C         15.94936         3.49300         0.37876
C         14.68536         4.28233         0.60446
C         15.94080         6.34828        -0.09868
C         14.70819         5.66688        -0.00509
C         15.98261         7.74123        -0.27192
C         14.75270         8.46502        -0.37947
C         16.04565        10.67301        -0.41181
C         14.75505         9.88084        -0.51275
C         15.99327        11.93884        -1.28304
C         14.72767        12.70475        -0.92955
C         16.04574        14.90586        -1.23939
C         14.71261        14.16190        -1.14027
C         16.02445        16.34583        -0.92361
C         14.78446        17.00503        -0.93180
C         15.96715        19.17270        -0.33781
C         14.72001        18.46065        -0.70351
C         16.06948        20.63165        -0.64228
C         14.82357        21.40458        -0.80110
C         16.05602        23.46487        -0.19033
C         14.82470        22.77670        -0.56419
C         16.07904        24.97525        -0.22118
C         14.75012        25.62639         0.06703
C         15.92633        27.67535         0.80205
C         14.71341        26.98496         0.45422
C         15.87467        29.05938         1.16610
C         14.62932        29.74518         1.17163
C         18.40282         3.39600         0.17121
C         17.13725         4.10633         0.14060
C         18.40993         6.27529         0.27978
C         17.20829         5.55132        -0.30830
C         18.45523         7.71242        -0.20451
C         17.27014         8.42417        -0.35857
C         18.48618        10.49701        -0.87284
C         17.30768         9.85978        -0.62590
C         18.57753        11.96173        -1.25777
C         17.27723        12.75038        -1.12208
C         18.57486        14.88574        -1.05957
C         17.29519        14.11275        -1.08559
C         18.59230        16.41195        -0.84833
C         17.23035        17.03786        -0.60982
C         18.40713        19.06900         0.16919
C         17.22850        18.39822        -0.24306
C         18.31587        20.51689         0.61260
C         17.30676        21.32642        -0.17729
C         18.43944        23.43176         0.53721
C         17.23520        22.78181         0.06318
C         18.42460        24.85061         0.75773
C         17.22884        25.58967         0.54215
C         18.34491        27.64111         1.34175
C         17.16820        26.96397         0.88084
C         18.28840        29.04193         1.64028
C         17.05834        29.72881         1.54240
C         19.59769         4.05625         0.10529
C         20.86441         6.16188        -0.16512
C         19.68072         5.49265         0.03873
C         20.89025         7.57765        -0.35195
C         19.73094         8.33032        -0.40548
C         20.70408        10.55449         0.15732
C         19.82124         9.78567        -0.80960
C         20.65788        11.93163         0.19923
C         19.71079        12.66472        -0.53830
C         20.99845        14.87086        -0.23503
C         19.82700        14.11074        -0.73905
C         20.88752        16.13668         0.19004
C         19.54283        16.82389         0.31012
C         20.75974        19.04691         0.76732
C         19.60736        18.34894         0.40027
C         20.78827        20.46403         0.83037
C         19.64431        21.23062         0.69049
C         20.78703        23.38164         1.20068
C         19.62255        22.67928         0.79156
C         20.77777        24.74758         1.41025
C         19.60385        25.51395         1.22430
C         20.72459        27.65140         1.89339
C         19.57532        26.93846         1.48340
C         20.66664        29.02253         2.16438
C         19.46991        29.71667         2.04811
O          5.35355        27.56569        -1.98572
O          2.24631         9.83425        -0.56010
O          2.15498         6.18925         2.79269
O         15.30829        14.54008        -2.44970
O         14.94726        18.87535         0.68880
O          7.86648         5.82974        -1.72967
O         19.48003        14.50851        -2.16229
O         12.52228        13.54017         0.97804
O         12.93932        21.29394        -2.39950
O         17.15756        20.95015        -1.58128
O          4.13209         5.48058        -1.17697
H          3.95939         6.39337        -1.49312
O         16.35591        25.31452        -1.64034
H         17.12663        24.77742        -1.92434
O         18.89838        11.95925        -2.69383
H         19.11647        12.89738        -2.92806
O          3.61877        16.20057        -2.35196
H          4.48084        15.83793        -2.65032
O         20.48059         9.83012        -2.10679
H         20.09961        10.60064        -2.60006
O          4.03019        10.90273         2.52763
H          3.79761        10.06018         2.99520
O         18.92353        16.33971         1.53256
H         19.47180        16.62779         2.29148
O          6.97437        25.45240         1.12422
H          7.76665        25.68164         1.65453
O         13.77618        18.89487        -2.81557
H         13.30960        19.61126        -3.30622
O         12.35952         5.38935        -2.05475
H         11.52968         4.95043        -2.34098
O          7.08403         8.19947        -2.18399
H          7.14982         7.22252        -2.33841
O          6.94184        10.60318        -2.01298
H          6.92113         9.85361        -2.65517
O          6.37934        25.11586        -2.47838
H          6.09638        26.03986        -2.70192
O         15.90087        11.53767        -2.66450
H         15.86318        12.35640        -3.20557
O          0.86243        20.66642        -2.26725
H          0.85371        21.61043        -2.53424
O         14.67754         4.53689         2.06326
H         15.53557         4.95939         2.28614
O          9.49763        22.80933         1.07784
H         10.18073        22.28603         1.54710
O          8.84038        23.56345        -2.44311
H          8.07573        24.06213        -2.82057
O         17.77932        20.50170         1.98177
H         18.40000        19.98617         2.53831
O          2.30201        13.84666        -1.95449
H          2.46419        14.71471        -2.40026
O          8.31936         7.91227         1.25200
H          9.17614         7.69248         1.67493
O         16.12328        11.16115         0.96265
H         16.07218        10.38734         1.56199
O         18.20248         6.32355         1.72728
H         19.01174         6.70355         2.12917
O          2.70876         8.73020         2.97625
H          2.68605         7.82616         3.37974
O         19.09263        17.02472        -2.05212
H         19.53256        16.31867        -2.58190
O          5.16396        13.23990         2.05172
H          4.91198        12.43849         2.57525
O         17.41385         5.51953        -1.74728
H         16.61522         5.13132        -2.16154
O          6.44791        29.89979        -1.99859
H          5.91475        29.33825        -2.60751
O          4.03157        27.59036         1.45467
H          3.26831        27.91864         1.97522
O          8.72639        16.58036         1.55380
H          9.50268        16.05840         1.85141
H          1.48830         2.46799         2.06512
H         -0.59816         3.56685         2.22591
H         -1.02827         5.88533         1.73658
H         -0.92847         7.88852         0.83931
H         -0.92896        10.20127         0.04863
H         -0.89087        12.21188         0.42377
H         -0.86606        14.66136         0.44500
H         -0.92657        16.53475         0.14064
H         -0.97789        18.94368        -0.18945
H         -0.96763        20.84859         0.05201
H         -0.89310        23.24934         0.32357
H         -0.99016        25.14657        -0.16736
H         -0.97233        27.60284        -0.05134
H          0.26035        29.74565         0.06770
H          3.89544         2.35206         1.25459
H          2.35845        31.03011        -0.04036
H          6.21314         2.40552         0.63827
H          4.76601        31.09197        -0.34934
H          8.57195         2.41298         0.19653
H          7.33064        30.96845         0.46945
H         10.97755         2.39960         0.20639
H          9.74521        30.88308         0.88954
H         13.37055         2.47948         0.67219
H         12.17626        30.83627         1.17417
H         15.93417         2.42660         0.65770
H         14.60898        30.81161         1.44065
H         18.38316         2.29949         0.26389
H         17.01532        30.79803         1.79739
H         20.53779         3.48300         0.09596
H         21.80223         5.59606        -0.27282
H         21.85343         8.06139        -0.56621
H         21.47670        10.01442         0.72494
H         21.40472        12.47939         0.79649
H         21.98318        14.37948        -0.26647
H         21.79382        16.65851         0.53192
H         21.70376        18.51510         0.94737
H         21.76705        20.94136         0.98016
H         21.71821        22.83052         1.38796
H         21.70389        25.23134         1.74780
H         21.68758        27.13554         2.00346
H         21.57838        29.54989         2.47820
H         19.42532        30.79229         2.27055
