         576
 CSIRO Nanostructure Databank - Neutral Graphene Oxide Data Set
C          5.87711        19.11083         0.71746
C          5.84594        20.48121         0.77746
C          4.61214        21.22387         0.69401
C          5.76807        23.40084         0.47773
C          4.57812        22.58039         0.56461
C          5.69166        24.73738         0.21382
C          8.42412        14.78855         0.65712
C          8.39625        16.20228         0.72331
C          7.16902        16.93524         0.84729
C          8.32488        19.06536         0.60690
C          7.13088        18.34994         0.75026
C          8.21175        20.50347         0.14570
C          7.15401        21.23108         0.99322
C          8.07041        23.29371        -0.45047
C          7.15026        22.79446         0.73099
C          8.19944        24.82419        -0.31585
C          6.91246        25.56851         0.03518
C          8.26942        27.56825         0.59846
C          7.03604        26.91175         0.58112
C          8.35168        28.97771         0.82364
C         10.88120        10.46126         0.41134
C         10.88751        11.91464         0.44144
C          9.67012        12.64315         0.53374
C         10.87608        14.79576         0.53728
C          9.64470        14.06989         0.57985
C         10.84988        16.20409         0.51805
C          9.63529        16.90837         0.63811
C         10.73557        19.02726        -0.05368
C          9.66119        18.41195         0.83085
C         10.63428        20.44109        -0.49252
C          9.53819        21.26094         0.16035
C         10.63312        23.31527        -0.53236
C          9.42056        22.62084        -0.45790
C         10.72387        24.63919         0.22235
C          9.46426        25.46770         0.06942
C         10.79479        27.42066         0.76718
C          9.49401        26.79488         0.41085
C         10.83406        28.91574         0.99227
C          9.56920        29.67836         0.87863
C         10.87798        31.78051         0.88800
C          9.63631        31.07972         0.86237
C         10.89814        33.19774         0.89292
C         13.25385         6.13077         0.57095
C         13.20024         7.54790         0.28140
C         12.04714         8.27361         0.41687
C         13.32643        10.38533         0.17391
C         12.04095         9.71972         0.31367
C         13.41713        11.85297         0.50301
C         12.11258        12.58937         0.46702
C         13.37777        14.72566         0.05651
C         12.18645        14.06405         0.74099
C         13.38966        16.20433         0.06093
C         12.13688        16.94813         0.38416
C         13.24931        19.08462        -0.64364
C         12.09256        18.40933         0.01926
C         13.11528        20.45015        -1.26137
C         11.82888        21.18731        -1.03195
C         13.10126        23.33072        -0.78890
C         11.85294        22.63742        -0.75710
C         13.16538        24.74259        -0.47028
C         11.99070        25.41891        -0.05467
C         13.29058        27.46450         0.37924
C         12.04449        26.76375         0.31984
C         13.30457        28.87389         0.73016
C         12.12847        29.61505         0.85516
C         13.33448        31.78932         0.89757
C         12.12020        31.05588         0.89111
C         13.32701        33.18829         0.92496
C         12.10304        33.91995         0.91979
C         13.30408        36.09126         0.85445
C         12.12946        35.36889         0.99482
C         13.33161        37.53291         1.09987
C         15.71629         6.16606         0.59239
C         14.43941         5.47508         0.70383
C         15.72881         7.52703         0.19709
C         14.45026         8.18610        -0.28342
C         15.74903        10.35161        -0.29961
C         14.47430         9.68414        -0.10051
C         15.74135        11.80297        -0.63495
C         14.46114        12.55760        -0.36648
C         15.69030        14.72199        -0.94421
C         14.48737        14.03927        -0.31301
C         15.70515        16.21341        -0.70734
C         14.55420        16.89889        -0.53765
C         15.72586        19.13824        -0.66679
C         14.49843        18.32215        -1.07580
C         15.64736        20.53675        -0.79264
C         14.43743        21.18622        -1.50641
C         15.35770        23.53338        -1.54730
C         14.27151        22.69161        -1.26606
C         15.59593        24.80487        -0.98590
C         14.41463        25.44865        -0.46127
C         15.85493        27.30471         0.35688
C         14.47521        26.77970         0.02181
C         15.88889        28.81572         0.62040
C         14.60401        29.54984         0.93674
C         15.86053        31.80599         0.62924
C         14.62548        31.06061         0.99653
C         15.83139        33.19525         0.65451
C         14.61717        33.92763         1.18760
C         15.66644        35.91339         0.15462
C         14.54004        35.34368         0.67711
C         15.70575        38.03040         0.55545
C         14.40872        38.38079         1.11551
C         18.16477         6.16794         0.81517
C         16.91722         5.50678         0.90816
C         18.15715         7.53499         0.40751
C         16.95575         8.22093         0.10003
C         18.18388        10.40502        -0.45228
C         16.93073         9.64197        -0.28628
C         18.20074        11.88265        -0.40288
C         17.00305        12.57326        -0.65707
C         18.18860        14.72595        -0.57467
C         17.00872        14.01497        -0.66208
C         18.11418        16.20287        -0.22181
C         16.98626        16.97881        -0.94061
C         18.13203        19.11275         0.02631
C         16.90839        18.42109        -0.42976
C         18.19651        20.60320        -0.11649
C         16.92201        21.27548        -0.66356
C         18.29402        23.29531        -1.08465
C         17.20029        22.50705        -1.36657
C         18.20170        24.74738        -1.25944
C         16.91058        25.45021        -0.99806
C         18.17387        27.56024        -0.74375
C         16.97264        26.77948        -0.55794
C         18.20050        28.90877        -0.46593
C         17.08103        29.61543         0.19192
C         18.18873        31.81616        -0.12874
C         17.04251        31.10660         0.16524
C         18.28041        33.23557         0.23038
C         17.01979        33.95404         0.40437
C         18.17518        36.16487         0.17639
C         16.98446        35.34311         0.25857
C         18.17124        37.58949         0.45356
C         16.98598        38.31867         0.94123
C         20.66115         6.05110         1.01133
C         19.39516         5.46375         1.10834
C         20.70759         7.48183         0.61741
C         19.45883         8.21111         0.24908
C         20.33295        10.59277         0.74690
C         19.45344         9.69857         0.03347
C         20.53459        11.92841         0.38535
C         19.43727        12.57052        -0.23881
C         20.59987        14.76300         0.26397
C         19.54584        14.02288        -0.62550
C         20.73736        16.20659        -0.18056
C         19.44257        16.93357        -0.37447
C         20.73098        19.10763        -0.20988
C         19.44942        18.38216        -0.01943
C         20.72868        20.48019        -0.41790
C         19.48894        21.24126        -0.44988
C         20.74363        23.17051        -1.42889
C         19.51100        22.58725        -0.78836
C         20.68578        24.70239        -1.49904
C         19.39424        25.42962        -1.30333
C         20.68950        27.53293        -0.79453
C         19.40565        26.93650        -1.39897
C         20.70171        28.98867        -0.49715
C         19.42048        29.70292        -0.75862
C         20.72109        31.91151        -0.60569
C         19.42201        31.17959        -0.62043
C         20.63019        33.39489        -0.87304
C         19.51098        34.03428        -0.06448
C         20.63560        36.21618        -0.11127
C         19.41561        35.51400        -0.04993
C         20.63712        37.62064         0.16881
C         19.39574        38.25954         0.46313
C         23.18213         6.00783         0.88115
C         21.91213         5.38150         1.09940
C         23.18312         7.44875         0.35778
C         21.98545         8.18258         0.86076
C         23.18594        10.34215         1.00742
C         22.08249         9.48947         1.28445
C         23.11789        11.82242         1.09259
C         21.79544        12.62033         0.79882
C         23.12665        14.72341         0.53475
C         21.93231        14.04966         0.42342
C         23.16874        16.24638         0.65389
C         21.95283        16.97542         0.13439
C         23.21422        19.08969        -0.06207
C         21.96039        18.35604        -0.03532
C         23.20848        20.45100        -0.33870
C         21.98945        21.19305        -0.55100
C         23.24352        23.32342        -0.85530
C         22.01917        22.55285        -0.88345
C         23.22085        24.69348        -1.05828
C         21.98361        25.43445        -1.36844
C         23.15526        27.59543        -1.06634
C         21.99858        26.88281        -1.04647
C         23.13580        29.07946        -1.08631
C         22.00763        29.77210        -0.33782
C         23.17147        31.97443        -0.83830
C         21.91623        31.25054        -0.66897
C         23.15648        33.40784        -0.77161
C         21.92827        34.12320        -0.64648
C         23.09201        36.24161        -0.24118
C         21.88827        35.51864        -0.34140
C         23.09853        37.64081         0.06350
C         21.86683        38.31312         0.24447
C         25.71168         5.99281         0.94676
C         24.38407         5.32140         0.98128
C         25.68798         7.50638         0.73999
C         24.42474         8.23938         0.63017
C         25.62002        10.41917         0.80090
C         24.40384         9.64383         0.73429
C         25.58614        11.82976         0.90102
C         24.38461        12.58009         0.91470
C         25.61316        14.73931         0.65184
C         24.39422        14.01313         0.74986
C         25.67096        16.15368         0.32397
C         24.45365        16.89317         0.18682
C         25.67904        18.99093        -0.11435
C         24.46827        18.31806        -0.00243
C         25.67789        20.47118        -0.07826
C         24.49659        21.14432        -0.71892
C         25.68109        23.35124        -0.44439
C         24.50860        22.65180        -0.56290
C         25.70857        24.82297        -0.54186
C         24.42225        25.51587        -0.84142
C         25.71727        27.67875        -1.07423
C         24.45326        26.90442        -1.43530
C         25.68527        29.07434        -1.16180
C         24.41652        29.82295        -1.26433
C         25.61031        32.01889        -1.10992
C         24.40252        31.29728        -1.03625
C         25.61078        33.42652        -0.89927
C         24.39453        34.11097        -0.75438
C         25.56827        36.13820         0.15014
C         24.38393        35.62316        -0.69631
C         25.57837        37.65382         0.23649
C         24.34563        38.32852         0.21249
C         28.08004         5.49843         0.16067
C         26.97347         5.14451         0.87003
C         28.04928         7.72406        -0.01027
C         26.86755         8.33399         0.43175
C         28.10247        10.41124         0.56598
C         26.85966         9.71781         0.67123
C         28.11211        11.82542         0.67465
C         26.87347        12.53572         1.02384
C         28.20586        14.69449         0.57507
C         26.89819        14.04839         0.88544
C         28.17902        16.17103         0.62912
C         26.91806        16.83599         0.28720
C         28.24525        19.01495        -0.13665
C         26.94031        18.21233        -0.34912
C         28.22666        20.49892         0.14791
C         26.93312        21.24171         0.11273
C         28.16614        23.30484        -0.85375
C         27.00443        22.76199        -0.00275
C         28.17912        24.82695        -0.81867
C         26.99123        25.54242        -0.79259
C         28.21018        27.75456        -0.57025
C         26.94659        26.97726        -0.89833
C         28.23476        29.17719        -1.08545
C         26.94328        29.79930        -1.56195
C         28.20110        32.07721        -1.29787
C         26.89589        31.33030        -1.43358
C         28.23403        33.58573        -1.05495
C         26.90004        34.08002        -0.42334
C         28.07624        36.15249         0.29898
C         26.88384        35.63581        -0.45901
C         28.01835        37.53877         0.71461
C         26.79419        38.28202         0.51395
C         30.53248         5.97323        -0.15122
C         29.48855         5.09039         0.07973
C         30.55155         7.44103         0.20725
C         29.30723         8.25400         0.25287
C         30.51754        10.37275         0.18184
C         29.32071         9.66660         0.46299
C         30.34564        11.71559        -0.11014
C         29.27633        12.53239         0.33443
C         30.73764        14.70951         0.72873
C         29.38378        13.99245         0.40979
C         30.78493        16.17247         0.37160
C         29.53710        16.89799         0.53826
C         30.80387        19.10241         0.50550
C         29.54205        18.33053         0.14083
C         30.74442        20.42386        -0.26894
C         29.50627        21.24697        -0.06314
C         30.69170        23.31498        -0.74854
C         29.50744        22.67299        -0.48648
C         30.72215        24.75707        -0.91353
C         29.47943        25.52387        -0.50169
C         30.62794        27.63568        -1.20340
C         29.48784        26.99509        -0.86942
C         30.71578        29.13072        -1.45345
C         29.41652        29.85695        -1.18256
C         30.56765        31.93151        -0.53430
C         29.46027        31.31362        -1.07884
C         30.51391        33.30835        -0.03830
C         29.36040        34.06669        -0.16903
C         30.39640        35.95755         1.05189
C         29.25212        35.39345         0.40270
C         30.26705        37.26737         1.78957
C         29.12572        38.11896         1.31098
C         32.95984         6.17813        -0.69686
C         31.83048         5.43373        -0.51703
C         33.06860         7.59164        -0.37878
C         31.87420         8.20705         0.27000
C         33.19607        10.46391         0.25539
C         31.84796         9.74198         0.56325
C         33.35947        11.92788         0.18300
C         32.24316        12.80216        -0.06768
C         33.32003        14.77728         0.74734
C         32.07211        14.06255         0.39989
C         33.31806        16.20865         0.37740
C         32.03674        16.88885         0.25226
C         33.33666        19.05913         0.20439
C         32.03926        18.29658         0.13899
C         33.28766        20.44670        -0.40994
C         31.99372        21.09892        -0.70015
C         33.23000        23.29867        -0.81983
C         31.96035        22.55826        -1.14973
C         33.19453        24.72996        -0.95211
C         31.91582        25.41919        -1.10067
C         33.13874        27.63295        -1.06591
C         31.89968        26.88335        -1.49921
C         33.11143        29.04796        -0.67161
C         31.91979        29.75818        -0.78032
C         32.81711        31.64388         0.65533
C         31.93245        31.25684        -0.56723
C         32.81724        33.13493         0.89179
C         31.66561        33.88157         0.64149
C         32.78099        35.87506         1.64619
C         31.59478        35.24985         1.10161
C         32.74447        37.30803         1.91050
C         31.58395        37.99389         1.89984
C         34.21920         8.28610        -0.65246
C         35.62121        10.47432        -0.59948
C         34.46344         9.67615        -0.20684
C         35.78498        11.80039        -0.11817
C         34.60282        12.52545         0.33271
C         35.89629        14.73396         0.47217
C         34.61702        13.97642         0.63959
C         35.83713        16.16049         0.08622
C         34.55047        16.87179         0.06216
C         35.71352        18.93569        -0.74941
C         34.53059        18.24970        -0.22344
C         35.72614        20.44344        -0.78567
C         34.43997        21.15481        -0.59663
C         35.65011        23.34815        -0.30898
C         34.42576        22.61041        -0.70462
C         35.62899        24.87398        -0.32549
C         34.38123        25.47353        -0.89812
C         35.88034        27.74612         0.08528
C         34.29678        26.88671        -1.14674
C         35.13554        28.74537         0.73739
C         34.15788        29.57392         0.19753
C         35.23376        31.58063         1.61323
C         34.24307        31.06038         0.53293
C         35.07425        32.96215         1.89371
C         33.94878        33.72655         1.54091
C         33.91955        35.12675         1.84790
C         36.99197        12.51424        -0.28608
C         38.33220        14.69956        -0.30094
C         37.15929        13.91762         0.07901
C         38.31547        16.08910        -0.18124
C         37.03718        16.80233        -0.18416
C         38.34226        18.94860        -0.63294
C         37.05182        18.18261        -0.70789
C         38.31789        20.48044        -0.52175
C         37.01057        21.21516        -0.64226
C         38.06956        23.27026         0.24806
C         36.95470        22.63488        -0.20147
C         38.14021        24.75407         0.33446
C         36.96648        25.59653        -0.06116
C         37.87151        27.42778         1.54477
C         36.88375        26.93972         0.60277
C         37.85132        28.83463         1.96330
C         36.70605        29.60144         2.04335
C         36.44887        31.01387         2.04069
C         39.52522        16.84312        -0.10522
C         40.66369        19.00767         0.26140
C         39.53744        18.24811        -0.11020
C         40.59448        20.41314         0.46034
C         39.41798        21.11750         0.19474
C         40.55227        23.31207         0.67830
C         39.25307        22.49727         0.78042
C         40.35664        24.62482         1.39566
C         39.20361        25.34354         1.20495
C         39.00336        26.64682         1.78090
C         41.72285        21.14097         1.05185
C         41.71568        22.48204         1.18347
O         21.39259        25.18507        -2.71979
O         34.14576         9.90035         1.21223
O         29.00004        20.97608         1.29357
O         22.25094        12.34817         2.15268
O         36.39609        21.01904        -1.95389
O         27.87969         6.56031        -0.75042
O         19.29804        30.51333        -1.97316
O         31.18391        20.27620        -1.64721
O         13.10582        16.69511         1.45507
O         38.67645        19.79015        -1.76301
O         20.21742        16.55977        -1.53726
O         31.28985        12.29046        -0.94137
O         36.29618        18.32426        -1.94444
O         36.83071        14.32822         1.48462
O         12.20476        20.68009        -2.35916
O         20.52021        28.00832         0.58576
O          7.47164        25.52010        -1.36616
O         24.92616        25.48135         0.53177
O         35.53811        27.51759        -1.25307
O         14.69849        30.25344         2.22238
O         10.21276        19.35247        -1.38024
O         19.33520        33.46828         1.27244
O         15.57832        37.13172        -0.52851
O         18.78376        18.62752         1.25898
O         26.06148        20.93267         1.26960
O         23.50728        29.51223        -2.43744
O         16.35536        22.97992        -2.35623
O         13.05511        19.19146         0.80060
O         10.83819        27.96835         2.11922
O         17.34664        21.37121         0.76558
O         26.96114        33.68873         0.92617
O         14.73113        12.06387        -1.70520
O         19.21567         9.96465        -1.37995
O         16.92485        29.13190         1.59754
O         29.16751        18.63812        -1.23146
O         25.81348         6.89864         2.12774
O         31.36878         7.50652         1.44023
O         35.47167        28.92134         2.08076
O         20.94054        10.07406         1.88082
O         10.80743        24.10866         1.52701
O         26.95624        13.38905         2.20787
O         38.04077        25.38723        -1.01186
O         14.59257        18.25954        -2.48243
O         34.02894        14.35241         1.94860
O         35.33212        24.13091         0.90812
O         20.29894         7.59111        -0.81947
O         28.86114        16.70715         1.84894
O         27.58192        31.88161        -2.62755
O         26.97577        36.18850        -1.77551
H         27.75517        35.77453        -2.22428
O         28.16160        27.90657         0.89060
H         28.53195        27.07301         1.27831
O         17.24172        17.11184        -2.34892
H         16.37257        17.38934        -2.75203
O         40.76898        23.57181        -0.73145
H         41.40628        24.30954        -0.82029
O          9.94740        21.51935         1.53523
H         10.27631        22.48300         1.61522
O         30.73106        14.68216         2.19703
H         30.02574        15.30983         2.49514
O         20.27389        33.55312        -2.28974
H         20.13531        32.66253        -2.67950
O         17.72345        16.22772         1.16965
H         18.42380        15.75979         1.68825
O         23.09806         7.32874        -1.10644
H         22.14245         7.29516        -1.34981
O          7.66038        23.44475         1.90201
H          7.51363        22.83026         2.66168
O         13.95392        11.93644         1.86558
H         13.52958        12.72131         2.30192
O         20.00719        14.00277        -1.99473
H         19.95699        14.92639        -2.34316
O         20.67349        22.69461        -2.81376
H         21.09325        23.39423        -3.36859
O         10.04810        18.67332         2.21145
H          9.34290        18.32956         2.79867
O         15.51412        14.59619        -2.38717
H         15.28070        13.65362        -2.57338
O         31.74799         9.87905         2.00379
H         32.58539         9.53928         2.39241
O         34.89144        31.60069        -0.65118
H         34.21288        31.67901        -1.36983
O         30.92809        29.35601        -2.89381
H         31.35898        28.54006        -3.25489
O         24.66204        20.90926        -2.15176
H         23.85622        21.23212        -2.60829
O          7.40344        23.00274        -1.68921
H          7.14280        23.86918        -2.08674
O         29.50328        25.49569         0.98342
H         29.00344        24.69799         1.28175
O         25.41705        35.66596         1.48866
H         25.94431        34.81095         1.57704
O         12.48264        14.19730         2.18958
H         12.72357        15.15451         2.32561
O         22.38897        29.72182         1.05791
H         21.91418        28.96089         1.46881
O         20.02419        14.79372         1.60714
H         20.73227        15.04374         2.24093
O         29.89747        36.90167         3.17863
H         29.77051        37.73498         3.67971
O         14.76847        33.98470         2.64225
H         14.83434        33.06292         2.97327
O         27.27323        23.28133         1.32154
H         26.74467        22.74537         1.95642
O         32.22997        31.01640         1.81881
H         31.37960        31.46043         2.02047
O          7.49485        21.01506         2.38182
H          8.48733        21.09209         2.43935
O         26.86365        17.89719        -1.78802
H         27.79081        17.89274        -2.13057
O         27.90589        22.87149        -2.21504
H         28.60349        23.23633        -2.79957
O         33.57181        19.34871         1.67150
H         33.68703        18.47680         2.11240
O         14.40418         7.94525        -1.73150
H         14.41674         6.97441        -1.86860
O         23.13390        16.45699         2.11949
H         23.96818        16.09638         2.49180
O         28.49700        34.19107        -2.34524
H         28.05757        33.61902        -3.02014
O         32.53203        31.81065        -1.79044
H         32.07360        31.37606        -2.54575
O         31.96915        26.84039        -2.98371
H         32.78313        26.35176        -3.23502
O         30.84944        19.32342         1.92160
H         31.77202        19.58792         2.15739
O         24.52266        36.11151        -2.06423
H         23.75557        35.78088        -2.57716
O         16.17128        26.66787         1.63091
H         16.75850        27.28895         2.12325
O          7.72372        20.44271        -1.20762
H          8.41760        20.00653        -1.75511
O         26.97567        29.48785        -3.00148
H         27.47683        30.22289        -3.43212
O         14.79131        20.91733        -2.88056
H         14.70939        19.91101        -2.98498
O         31.88540        22.56196        -2.60647
H         31.45086        21.71392        -2.86472
O         24.46958        26.76884        -2.87716
H         24.36522        27.67386        -3.25255
O         19.39687        27.28584        -2.80540
H         20.06755        26.71330        -3.24677
O         39.00193        22.33475         2.21123
H         38.08745        22.00629         2.33754
H          4.93438        18.54839         0.62798
H          3.66854        20.65645         0.68899
H          3.60654        23.08930         0.46549
H          4.70881        25.22235         0.09493
H          7.47658        14.23012         0.69285
H          6.22677        16.37485         0.93890
H          6.14004        27.42044         0.96779
H          7.41389        29.55416         0.84696
H          9.91283         9.94581         0.49765
H          8.71901        12.09197         0.57264
H          8.70334        31.66174         0.81316
H          9.94111        33.74069         0.89950
H         12.30726         5.59861         0.75073
H         11.11406         7.76944         0.71452
H         11.17633        35.89605         1.15283
H         12.38010        37.94319         1.47848
H         14.45249         4.40685         0.96508
H         14.27692        39.38251         1.55483
H         16.88590         4.45285         1.22214
H         17.16279        39.09814         1.69797
H         19.31426         4.40812         1.41003
H         19.41528        39.32612         0.73359
H         21.90217         4.29321         1.27594
H         21.86867        39.38653         0.48532
H         24.36541         4.25720         1.27017
H         24.32296        39.41513         0.39590
H         27.02340         4.31405         1.59085
H         26.81907        39.37407         0.66176
H         29.72192         4.01224         0.04263
H         29.07535        39.16403         1.65782
H         33.87229         5.67719        -1.05455
H         31.87670         4.35501        -0.73303
H         33.69951        37.82287         2.09667
H         31.57059        39.07636         2.10132
H         35.03608         7.76892        -1.18050
H         36.41253        10.01630        -1.21020
H         35.86698        33.46530         2.47072
H         34.82088        35.59594         2.26999
H         37.82981        12.02268        -0.80288
H         39.27314        14.18161        -0.53741
H         38.82845        29.32505         2.09160
H         37.19944        31.69723         2.47209
H         40.46766        16.30225         0.06728
H         41.58118        18.47813         0.55931
H         41.15845        25.02426         2.03614
H         39.81322        27.05688         2.40253
H         42.59822        20.55355         1.36860
H         42.59632        23.00172         1.59260
