         618
 CSIRO Nanostructure Databank - Neutral Graphene Oxide Data Set
C         23.28635        69.71642         1.78734
C         23.43077        71.10015         2.34003
C         22.14119        71.86988         2.48221
C         23.42808        73.93994         2.54007
C         22.19361        73.21475         2.66632
C         25.38543        65.64197         0.37378
C         25.35384        67.06791         0.34212
C         24.18623        67.74897         0.71277
C         25.14948        70.02387         0.12086
C         24.17884        69.16515         0.90951
C         25.41773        71.35964         0.81086
C         24.49966        71.91591         1.65115
C         25.74020        74.07639         1.69103
C         24.55647        73.33530         2.00379
C         27.86964        61.38883         0.13851
C         27.84991        62.79697         0.08792
C         26.64669        63.52866         0.29066
C         27.84212        65.71910         0.18297
C         26.58693        64.93504         0.26279
C         27.78169        67.17072        -0.10648
C         26.54434        67.81591         0.01067
C         27.70617        70.02659        -0.57613
C         26.43111        69.26312        -0.28537
C         27.68258        71.53261        -0.41459
C         26.53029        72.19373         0.29496
C         27.97594        74.21641         0.69724
C         26.74636        73.53052         0.90956
C         30.24219        57.13540         0.30095
C         30.26602        58.48714        -0.18498
C         29.11673        59.25594         0.09292
C         30.27087        61.34128        -0.44366
C         29.05420        60.65239        -0.09879
C         30.23571        62.77913        -0.50355
C         29.07588        63.48780        -0.23203
C         30.23755        65.74201        -0.69109
C         29.11831        64.96543        -0.13589
C         30.20624        67.12720        -0.63516
C         28.99903        67.86836        -0.37527
C         30.20507        70.01710        -0.58572
C         29.01657        69.31531        -0.49715
C         30.26130        71.49219        -0.68467
C         28.98773        72.27669        -0.50953
C         30.34654        74.27935         0.09770
C         29.08252        73.63538         0.07930
C         32.91185        52.94309         0.34725
C         32.78529        54.30453        -0.00638
C         31.57546        54.95132         0.41593
C         32.78955        57.11612        -1.13814
C         31.11062        56.14017        -0.15876
C         32.68655        58.51125        -1.03414
C         31.45441        59.16689        -0.71612
C         32.74403        61.32473        -0.64641
C         31.44763        60.59898        -0.68848
C         32.74943        62.84587        -0.68648
C         31.44800        63.50751        -0.94758
C         32.76291        65.70217        -1.05776
C         31.45747        65.01586        -1.10164
C         32.76047        67.16546        -1.12586
C         31.43795        67.88774        -0.97721
C         32.72201        70.05348        -1.03283
C         31.52500        69.30004        -0.42590
C         32.73765        71.49821        -0.58868
C         31.56358        72.17732        -0.44277
C         32.79470        74.28601        -0.02046
C         31.55253        73.61251        -0.16183
C         35.38272        48.68674         0.62769
C         35.27483        50.00851         0.14935
C         34.12318        50.79306         0.36926
C         35.22203        52.87654        -0.41777
C         34.06884        52.18489         0.07254
C         35.19379        54.26002        -0.63350
C         33.94744        54.98901        -0.57057
C         35.23245        57.09236        -1.07160
C         33.97959        56.36333        -0.93416
C         35.21257        58.46482        -1.25305
C         33.93177        59.24859        -1.48415
C         35.17176        61.40519        -1.07998
C         34.00703        60.67607        -0.99929
C         35.20389        62.85846        -0.98498
C         33.99569        63.56806        -0.96378
C         35.22495        65.72008        -0.91937
C         33.97188        65.00041        -1.03213
C         35.20117        67.12028        -0.69987
C         34.01653        67.89299        -0.81909
C         35.18848        70.02425        -0.39004
C         34.00886        69.30329        -0.70034
C         35.25206        71.43717        -0.37718
C         34.03831        72.24151        -0.77298
C         35.24757        74.27418         0.05107
C         34.02113        73.63365        -0.19081
C         37.78970        44.31645         0.82185
C         37.62645        45.62283         0.10119
C         36.61485        46.55276         0.73766
C         37.48547        48.39320        -0.70794
C         36.50591        47.85695         0.31912
C         37.59835        49.90699        -0.62005
C         36.46846        50.64389        -0.40226
C         37.70248        52.85585        -0.67837
C         36.42236        52.08693        -0.86242
C         37.68891        54.21698        -0.80407
C         36.44273        54.96573        -0.90150
C         37.74162        57.07459        -1.19863
C         36.47984        56.34992        -1.05764
C         37.75453        58.48653        -1.28546
C         36.47007        59.20233        -1.46029
C         37.69332        61.43212        -1.10720
C         36.44220        60.70665        -1.39122
C         37.67129        62.80338        -0.98813
C         36.44850        63.57249        -1.02069
C         37.70149        65.73192        -0.75063
C         36.46480        64.99824        -0.89941
C         37.72660        67.08952        -0.43621
C         36.43346        67.76905        -0.22706
C         37.69343        69.98649         0.02126
C         36.40593        69.27665        -0.02511
C         37.65965        71.38559         0.14704
C         36.45021        72.10855        -0.03856
C         37.68969        74.25613         0.25852
C         36.47086        73.56657         0.07924
C         40.36471        40.28941         1.96230
C         40.25805        41.58809         1.43190
C         39.09019        42.34676         1.47861
C         40.23393        44.32700         0.46854
C         38.99520        43.66196         0.89610
C         40.17281        45.72492         0.03674
C         38.94077        46.33397        -0.14200
C         40.12564        48.41523        -1.01937
C         38.83735        47.67175        -0.74324
C         40.14002        49.88991        -1.02928
C         38.91066        50.59291        -0.64382
C         40.22760        52.75378        -0.95568
C         38.97197        52.10363        -0.56607
C         40.26106        54.21619        -0.93418
C         38.96723        54.96369        -0.78546
C         40.21208        57.08313        -1.19414
C         38.97497        56.39503        -1.12573
C         40.19678        58.49729        -1.18825
C         38.97083        59.19600        -1.19547
C         40.19529        61.40354        -0.76320
C         38.90654        60.62936        -0.70613
C         40.18244        62.75590        -0.64461
C         38.95973        63.52650        -0.95992
C         40.25531        65.69986        -0.51835
C         38.98812        65.01810        -0.89639
C         40.23064        67.14507        -0.34466
C         38.95651        67.84051        -0.29533
C         40.15880        70.01371        -0.03981
C         38.90784        69.23925        -0.05504
C         40.15853        71.41580         0.40705
C         38.85811        72.10217         0.70890
C         40.14502        74.24393         0.56572
C         38.91606        73.58709         0.44713
C         42.96247        36.16590         2.83366
C         42.92413        37.58252         2.60196
C         41.68388        38.25260         2.48922
C         42.83648        40.28295         1.77111
C         41.61681        39.59759         2.07214
C         42.75579        41.67663         1.31554
C         41.45130        42.12493         0.64086
C         42.70890        44.32371         0.29484
C         41.41582        43.63832         0.48449
C         42.71119        45.79663        -0.03554
C         41.40398        46.43760        -0.25245
C         42.62416        48.43869        -1.02765
C         41.40396        47.73991        -0.72958
C         42.56706        49.82829        -1.33061
C         41.32877        50.56392        -1.18406
C         42.62450        52.68586        -1.47272
C         41.40719        52.02061        -1.21159
C         42.70979        54.13513        -1.05250
C         41.46620        54.89746        -1.55286
C         42.70029        57.02048        -1.09593
C         41.49040        56.37455        -1.23186
C         42.74659        58.44391        -0.83925
C         41.49480        59.20541        -1.09857
C         42.64598        61.21788        -0.03184
C         41.48803        60.66901        -0.83620
C         42.66245        62.75109        -0.05161
C         41.40806        63.51557        -0.31730
C         42.76383        65.69654        -0.38600
C         41.42723        64.99135        -0.43770
C         42.67516        67.08978         0.17360
C         41.44118        67.79209        -0.05763
C         42.64918        69.89093         0.60001
C         41.48110        69.24999         0.00451
C         42.56174        71.30757         0.91466
C         41.33366        72.07955         0.64005
C         42.61302        74.19217         0.79948
C         41.37660        73.53432         0.74180
C         45.36746        33.31386         2.56318
C         44.16740        34.00948         2.73946
C         45.44212        36.13176         2.76858
C         44.14412        35.42803         2.78762
C         45.42976        37.64374         2.53440
C         44.12972        38.30316         2.34818
C         45.32496        40.33507         1.52493
C         44.08939        39.64734         1.90542
C         45.28107        41.60229         0.98658
C         44.02878        42.36013         0.90641
C         45.17955        44.31796        -0.26649
C         43.91233        43.49997        -0.10562
C         45.15179        45.65334        -0.64806
C         43.92711        46.39044        -0.61354
C         45.02256        48.37466        -1.62557
C         43.87659        47.73330        -1.05669
C         44.77183        49.63035        -2.16811
C         43.70351        50.47798        -1.83167
C         45.15739        52.57024        -1.40954
C         43.82808        51.98604        -2.06115
C         45.17959        54.10120        -1.35999
C         44.02071        54.82018        -1.33282
C         45.19540        56.99354        -0.75811
C         44.01438        56.33858        -1.44214
C         45.17967        58.32372        -0.38710
C         43.93611        59.09417        -0.51629
C         45.13944        61.18794         0.02828
C         43.97638        60.53175        -0.28777
C         45.21546        62.66610        -0.02136
C         43.96544        63.46245        -0.23189
C         45.08739        65.50235         0.56808
C         43.95122        64.89913         0.10751
C         44.95146        66.86947         1.21711
C         43.81101        67.72092         0.65943
C         45.04122        69.87106         1.11240
C         43.80950        69.15904         0.88317
C         45.10160        71.26746         1.02585
C         43.87098        72.05832         1.13497
C         45.09549        74.12676         0.67383
C         43.86856        73.50908         0.86637
C         46.58640        33.97089         2.37445
C         47.83584        36.08855         2.11752
C         46.66730        35.38849         2.40944
C         47.85311        37.50865         1.89702
C         46.64037        38.26075         1.97454
C         47.79711        40.24844         1.17273
C         46.60160        39.60752         1.55071
C         47.79297        41.74162         0.97486
C         46.48894        42.20626         0.37443
C         47.71416        44.32945        -0.40299
C         46.44762        43.57815        -0.25439
C         47.69549        45.65918        -0.84789
C         46.39703        46.28614        -1.20202
C         47.69145        48.47161        -1.75271
C         46.37591        47.71688        -1.72897
C         47.90072        49.88183        -2.39802
C         46.67787        50.75516        -2.44371
C         47.75929        52.83858        -1.97519
C         46.49370        52.00426        -1.93878
C         47.66722        54.17546        -1.27232
C         46.45934        54.79017        -1.11196
C         47.61565        56.84277        -0.03851
C         46.31047        56.08861        -0.30808
C         47.60158        58.32509         0.12671
C         46.39587        59.00150         0.06275
C         47.63399        61.21706         0.49139
C         46.33441        60.43505         0.55330
C         47.62916        62.62446         0.59526
C         46.40390        63.38705         0.46510
C         47.57413        65.50729         0.95008
C         46.34448        64.76202         0.68974
C         47.55272        66.87565         1.15998
C         46.27939        67.61337         1.35753
C         47.58351        69.81870         1.04392
C         46.30121        69.11729         1.30979
C         47.56710        71.24353         0.84172
C         46.33828        71.96841         0.86287
C         47.55583        74.06789         0.51936
C         46.33231        73.39306         0.69463
C         49.03184        38.15652         1.47512
C         50.22315        40.20737         0.74772
C         49.03264        39.53379         1.14096
C         50.21390        41.56064         0.30361
C         48.99263        42.29626         0.26463
C         50.16512        44.29593        -0.55813
C         48.95129        43.62451        -0.22654
C         50.14787        45.67581        -0.91631
C         48.90439        46.37969        -1.06981
C         50.18197        48.47216        -1.48099
C         48.88380        47.78140        -1.46082
C         50.25659        49.88329        -1.58617
C         49.04333        50.65382        -1.79631
C         50.24773        52.77678        -1.50344
C         48.98844        52.01305        -1.63470
C         50.22053        54.17321        -1.01910
C         48.95466        54.97997        -1.24852
C         50.16853        56.95474        -0.22356
C         48.91617        56.17523        -0.32662
C         50.06827        58.32605         0.15960
C         48.85836        59.03233         0.28293
C         50.07418        61.22510         0.54587
C         48.86874        60.49565         0.47159
C         50.09941        62.65443         0.66531
C         48.85426        63.36799         0.73755
C         50.06977        65.50645         0.94039
C         48.84047        64.78067         0.88729
C         50.07575        66.93051         1.07455
C         48.81581        67.64723         1.49598
C         50.01580        69.81643         0.88602
C         48.77854        69.11029         1.06263
C         50.02004        71.23458         0.71206
C         48.78811        71.94711         0.68372
C         50.01991        74.06888         0.38383
C         48.78672        73.37825         0.52147
C         51.40444        42.20687        -0.10410
C         52.62069        44.24935        -0.71470
C         51.40459        43.57042        -0.47132
C         52.63246        45.63188        -0.96110
C         51.39483        46.34927        -1.08449
C         52.66609        48.44770        -1.28166
C         51.40806        47.76160        -1.29203
C         52.70535        49.85133        -1.36539
C         51.49806        50.55113        -1.48054
C         52.75127        52.67153        -0.95589
C         51.53761        52.02592        -1.49983
C         52.66315        54.05796        -0.35140
C         51.37134        54.80857        -0.64588
C         52.64197        56.87666        -0.14999
C         51.37621        56.23787        -0.35348
C         52.60811        58.29919         0.23029
C         51.33433        59.02873         0.44925
C         52.59207        61.26049         0.81855
C         51.38180        60.52697         0.24003
C         52.63844        62.70820         0.36593
C         51.31875        63.39369         0.66854
C         52.54861        65.55727         0.81144
C         51.31416        64.80162         0.79466
C         52.51008        66.95255         0.85461
C         51.26884        67.65571         0.98386
C         52.45213        69.85573         0.84346
C         51.25423        69.11874         0.93553
C         52.46583        71.25038         0.64244
C         51.25028        71.94848         0.56821
C         52.48497        74.09519         0.33066
C         51.24975        73.39331         0.40677
C         53.87194        46.33357        -1.00880
C         55.13524        48.43867        -0.93543
C         53.90961        47.71993        -1.11595
C         55.20196        49.82946        -0.97033
C         54.01899        50.59935        -1.51580
C         55.17573        52.68678        -0.57745
C         53.94193        52.01045        -0.97136
C         55.17745        54.07158        -0.38199
C         53.92042        54.83818        -0.74656
C         55.11606        56.88479         0.17507
C         53.88045        56.24004        -0.20575
C         55.13283        58.32915         0.31257
C         53.89164        58.95972        -0.24016
C         55.04813        61.36083         0.92991
C         53.79247        60.74221         1.33205
C         55.05783        62.75298         0.87238
C         53.83686        63.44736         0.89263
C         55.01968        65.55226         1.22262
C         53.82754        64.87305         0.95074
C         55.08886        66.99095         1.03536
C         53.77545        67.70707         0.82998
C         55.02769        69.91390         1.17623
C         53.72519        69.16288         1.13937
C         55.02321        71.32592         0.76391
C         53.75058        71.93345         0.22638
C         54.95243        74.11655         0.27867
C         53.73224        73.43870         0.33613
C         56.36342        50.52788        -0.57906
C         57.57166        52.63780        -0.05486
C         56.38531        51.93582        -0.42133
C         57.57383        54.00682         0.17311
C         56.36015        54.75200         0.02237
C         57.52270        56.84308         0.81796
C         56.31035        56.15697         0.32134
C         57.51028        58.36661         0.95665
C         56.24314        59.06052         0.64669
C         57.57103        61.26806         0.56254
C         56.23835        60.55263         0.58218
C         57.60743        62.74400         0.82793
C         56.33417        63.50950         0.92235
C         57.56308        65.55932         1.78140
C         56.22294        64.79153         1.74182
C         57.58208        67.00112         1.45800
C         56.27333        67.74361         1.62896
C         57.46356        69.79386         0.72382
C         56.29433        69.16729         1.12949
C         57.47219        71.25100         0.56134
C         56.21181        71.98588         0.60262
C         57.42001        74.11084         0.31708
C         56.21989        73.43558         0.34723
C         58.86898        54.66658         0.61548
C         59.98860        56.90997         0.71708
C         58.83877        56.18230         0.65771
C         60.02040        58.36466         0.81055
C         58.79547        59.09750         0.84567
C         60.04535        61.21415         0.85909
C         58.82352        60.50278         0.78749
C         60.06251        62.65414         1.03853
C         58.87170        63.34898         1.27175
C         60.14577        65.52238         1.40125
C         58.86872        64.77462         1.64506
C         60.07690        67.01780         1.15431
C         58.74612        67.68698         1.11991
C         59.86628        69.66126         0.07970
C         58.69068        69.04529         0.67518
C         59.85331        71.23207        -0.07903
C         58.64911        71.93852         0.35940
C         59.94235        74.07211         0.10044
C         58.71483        73.41846         0.66054
C         61.23324        59.06552         0.77141
C         62.50583        61.20268         0.77358
C         61.28124        60.48776         0.82047
C         62.54007        62.62085         0.75742
C         61.31616        63.35966         0.95489
C         62.48753        65.48369         0.53040
C         61.33299        64.76985         0.94272
C         62.42086        66.89005         0.29682
C         61.24843        67.64725         0.51080
C         62.35192        69.74157        -0.20193
C         61.18271        69.01010         0.12785
C         62.33227        71.18435        -0.31162
C         61.13568        71.91565        -0.13328
C         62.35546        74.03424        -0.37663
C         61.12882        73.36278        -0.11644
C         63.73708        63.34445         0.56711
C         64.92772        65.44474         0.10179
C         63.73569        64.75356         0.37197
C         64.90508        66.80281        -0.41940
C         63.55226        67.56799        -0.35035
C         64.79864        69.71917        -0.56438
C         63.59007        69.04051        -0.35818
C         64.80429        71.17102        -0.56478
C         63.56704        71.88276        -0.48331
C         64.79274        74.00779        -0.69748
C         63.56617        73.32358        -0.52733
C         66.11099        67.63134        -0.51602
C         67.30434        69.75675        -1.02274
C         66.04734        68.98784        -0.68061
C         67.31401        71.14241        -0.35552
C         66.02007        71.88378        -0.59410
C         67.25605        74.00139        -0.85407
C         66.02041        73.31060        -0.70895
C         68.53488        71.94055        -0.70768
C         68.47966        73.29832        -0.89774
O         39.13512        64.32717        -2.19815
O         31.97410        67.65976        -2.29245
O         41.74247        60.20754        -2.19341
O         46.42397        42.31248        -1.07413
O         39.83919        54.71598         0.37897
O         57.39232        57.49206         2.13402
O         26.85089        69.56184        -1.66374
O         45.64986        50.11113        -3.13137
O         31.64086        56.39894        -1.44224
O         39.38797        47.75928        -2.12220
O         41.38634        41.57075        -0.63288
O         39.10507        51.28911         0.66611
O         57.07199        63.56643        -0.31847
O         51.06442        52.64164        -2.75693
O         36.45429        60.02780        -2.71710
O         43.39206        42.65160         2.19748
O         46.32359        46.56442        -2.64823
O         59.60834        70.32071        -1.19452
O         53.93186        59.66144        -1.23515
O         52.03565        58.46692         1.60221
O         56.88779        60.96753        -0.68700
O         29.57924        72.11075        -1.83791
O         42.96239        45.29226         1.34505
O         54.66901        67.41999        -0.30413
O         44.76393        63.10819        -1.38919
O         36.25503        68.35482         1.11341
O         46.30584        68.39553         2.62662
O         32.81196        62.13647         0.59078
O         58.31604        65.12380         2.97197
O         43.05091        71.64330         2.26927
O         45.62489        37.06898         3.87514
O         64.00598        66.94415        -1.58459
O         26.62743        72.18247        -1.18335
O         40.98865        69.86340        -1.24961
O         60.43880        66.47162         2.47242
O         54.25659        69.60153         2.42629
O         31.31566        64.10300        -2.26621
O         41.90778        63.24820         1.09945
O         48.32896        56.06658         1.01487
O         28.79665        65.40283         1.25062
O         53.82815        71.65648        -1.22519
H         53.10362        72.15761        -1.65705
O         53.90207        54.94528        -2.19740
H         54.65655        55.50417        -2.47682
O         38.70030        60.42201         0.75345
H         38.74640        61.29630         1.19721
O         44.17612        56.58488        -2.88689
H         44.17942        57.55673        -3.02655
O         47.80465        42.33562         2.32357
H         48.58937        41.98541         2.79608
O         47.94439        53.18808        -3.39987
H         48.30688        52.39990        -3.86159
O         67.38702        70.86432         1.08465
H         67.39032        71.72623         1.55205
O         37.06751        45.30208        -1.21922
H         36.88829        46.16163        -1.67745
O         46.05178        60.32364         2.00014
H         45.19069        59.86190         2.09970
O         41.36177        54.74368        -2.98281
H         42.18089        55.09963        -3.39179
O         48.89189        67.67974         2.96176
H         48.01958        68.02767         3.27435
O         45.09275        52.12587        -0.02082
H         45.77912        52.61144         0.48484
O         31.80255        69.18863         0.99895
H         31.06723        68.69567         1.42059
O         36.85191        48.09307        -1.99381
H         37.56844        48.14745        -2.67096
O         23.91523        70.89468         3.72179
H         23.91781        71.77450         4.15642
O         42.62228        54.14142         0.40345
H         43.37200        53.60953         0.74999
O         51.44372        60.57823        -1.22135
H         51.91585        61.39943        -1.50594
O         43.10213        65.90680        -1.81165
H         42.34073        66.35619        -2.23834
O         58.85020        73.52117         2.13925
H         58.01459        73.18498         2.52930
O         52.71765        53.91198         1.09477
H         51.86195        53.55357         1.40850
O         55.89296        64.37105         3.08775
H         56.69403        64.52937         3.64306
O         43.86138        52.27074        -3.47501
H         44.53170        51.67408        -3.87818
O         34.14975        72.41860        -2.24215
H         33.47620        73.08358        -2.50421
O         56.02076        67.74806         3.06716
H         56.77112        68.19597         3.51050
O         52.81592        62.80901        -1.10309
H         52.90606        63.75952        -1.32965
O         36.26875        51.96495        -2.33206
H         35.44199        51.46331        -2.49948
O         38.69487        71.96768         2.17100
H         39.44396        72.44030         2.59414
O         42.36758        60.79829         1.33827
H         41.99488        61.58256         1.81108
O         48.29439        49.60677        -3.77530
H         47.56541        49.09170        -4.18464
O         43.65289        42.93822        -1.40825
H         44.45406        42.43610        -1.68591
O         54.25444        50.71345        -2.95460
H         53.53352        51.26390        -3.32990
O         53.98035        59.79724         2.27194
H         53.13271        59.34501         2.51389
O         24.45077        70.36816        -1.09750
H         25.12851        70.75740        -1.70227
O         59.96421        54.19647        -0.17819
H         59.78936        54.42421        -1.11396
O         49.06339        55.56121        -2.57955
H         48.89935        54.82929        -3.22506
O         44.51086        66.54840         2.57002
H         44.83017        67.27881         3.15118
O         67.38409        69.89240        -2.44733
H         66.51095        70.18364        -2.78171
O         33.80105        59.34725        -2.94653
H         34.67758        59.66603        -3.28138
O         45.83064        55.60394         0.99457
H         46.62735        55.53181         1.57264
O         32.57515        70.09727        -2.46757
H         33.22477        70.75959        -2.80324
H         23.43787        75.01906         2.74930
H         25.84709        75.10107         2.07798
H         28.09071        75.21480         1.14664
H         30.38885        75.32897         0.42658
H         32.78976        75.33962         0.29859
H         35.25039        75.34697         0.29857
H         37.67805        75.35707         0.24136
H         40.17728        75.34127         0.48318
H         42.62749        75.29017         0.72245
H         45.13641        75.21001         0.48522
H         47.55284        75.16037         0.39040
H         50.00742        75.16352         0.27416
H         52.46149        75.19528         0.29403
H         54.95461        75.21689         0.23704
H         57.42944        75.20443         0.19143
H         59.95793        75.17037         0.03126
H         62.37117        75.13373        -0.39917
H         64.79366        75.10505        -0.77140
H         67.24803        75.09394        -0.97129
H         22.57345        69.05292         2.30376
H         21.19355        71.32055         2.57640
H         21.27680        73.78088         2.88737
H         24.44343        65.09469         0.52563
H         23.32464        67.16435         1.07140
H         26.94617        60.84733         0.39227
H         25.71204        62.96635         0.43625
H         29.52654        56.90101         1.10345
H         28.22741        58.74087         0.48596
H         32.04759        52.43863         0.80455
H         31.00939        54.48625         1.23706
H         34.56407        48.26481         1.23029
H         33.23919        50.32273         0.82561
H         36.87573        43.81060         1.17087
H         35.83770        46.12492         1.39098
H         39.44948        39.75586         2.26627
H         38.21911        41.96308         2.03575
H         42.00385        35.63118         2.91461
H         40.75486        37.70359         2.70219
H         45.34404        32.21563         2.52379
H         43.22010        33.45612         2.81152
H         47.49537        33.38838         2.16639
H         48.76210        35.52532         1.92699
H         49.96764        37.58332         1.40137
H         51.17430        39.65548         0.75025
H         52.35751        41.65851        -0.07227
H         53.57204        43.70373        -0.63244
H         54.80682        45.76861        -0.87878
H         56.03151        47.86566        -0.64996
H         57.26802        49.95254        -0.32706
H         58.51180        52.07694         0.05418
H         59.07845        54.31793         1.66674
H         60.95262        56.38315         0.64336
H         62.17732        58.50418         0.70632
H         63.44957        60.64365         0.69079
H         64.68485        62.79633         0.45889
H         65.89472        64.93416         0.22483
H         67.09150        67.13162        -0.48151
H         68.20859        69.18821        -0.69248
H         69.50238        71.41807        -0.72129
H         69.40654        73.85979        -1.08629
