         260
 CSIRO Nanostructure Databank - Neutral Graphene Oxide Data Set
C         30.51844        31.12099        -0.85918
C         30.62359        32.28703        -1.33942
C         33.15073        35.24221        -3.70459
C         33.72083        36.34724        -4.03018
C         33.55154        39.58579        -4.57740
C         33.39743        40.80651        -4.72106
C         32.60661        28.65140         1.01114
C         31.61975        29.15984         0.42054
C         32.28971        31.51091         0.75953
C         31.28558        30.47376         0.08938
C         32.57241        32.82431        -0.04958
C         31.74692        33.16712        -1.11861
C         33.89902        35.46314        -1.44145
C         32.97873        34.82651        -2.39606
C         34.47370        36.87808        -1.90466
C         34.20493        37.38815        -3.27814
C         34.89867        39.76982        -2.61062
C         34.38405        38.80682        -3.65009
C         34.49294        41.24024        -2.58152
C         33.58771        41.82787        -3.67859
C         34.34920        43.98878        -2.87646
C         33.83992        43.27074        -3.74955
C         35.27950        27.22313         1.37070
C         35.07884        28.62592         1.87298
C         33.91661        29.33330         1.15571
C         34.64891        31.78525         1.59773
C         33.65860        30.83267         1.04424
C         34.83634        33.04478         1.12563
C         33.56396        33.79170         0.68095
C         35.09323        35.87938         0.64116
C         33.76979        35.27684         0.09350
C         35.14343        37.40185         0.58924
C         34.74774        37.88711        -0.81895
C         36.22630        40.03183        -0.47420
C         35.13818        39.26769        -1.21369
C         35.88933        41.51537        -0.41114
C         35.36734        42.12753        -1.69517
C         35.84498        44.51139        -0.74923
C         35.35283        43.63230        -1.85540
C         36.26949        45.89822        -0.99183
C         37.66960        27.13763         0.93659
C         36.29332        26.63593         1.00432
C         37.62937        28.64561         1.03056
C         36.47897        29.27566         1.55606
C         37.62088        31.46291         1.39109
C         36.56696        30.64350         1.82001
C         37.47658        32.94449         1.50553
C         36.12477        33.73523         1.43689
C         37.46315        35.94589         1.15723
C         36.16109        35.18377         1.09256
C         37.34945        37.28790         1.94375
C         36.40456        38.10587         1.09911
C         37.65933        40.21806         1.65327
C         36.66458        39.41456         0.84646
C         37.71616        41.70968         1.42695
C         36.66054        42.35843         0.55596
C         37.85339        44.59864         0.97903
C         36.69898        43.86163         0.39762
C         37.94283        45.98952         0.78525
C         36.92927        46.47508        -0.10124
C         40.08497        24.51630        -0.43431
C         39.06047        25.07338        -0.02916
C         40.07225        27.27885        -0.02402
C         38.88847        26.44865         0.45999
C         40.01724        28.77545         0.14559
C         38.79142        29.41238         0.73934
C         40.00353        31.62778         0.53171
C         38.77925        30.81620         0.90116
C         40.04710        32.94778         1.36698
C         38.72204        33.70779         1.28546
C         39.85750        35.81512         1.65384
C         38.66886        35.08058         1.44073
C         39.77509        37.12107         2.21730
C         38.71267        37.97950         2.08471
C         40.17320        40.20710         1.67599
C         38.87482        39.49388         2.31444
C         40.19311        41.71220         2.03088
C         38.97664        42.48303         1.65288
C         40.28249        44.60330         1.67599
C         39.01766        43.86609         1.49402
C         40.25885        46.12088         1.89591
C         39.01915        46.78227         1.26005
C         40.23016        48.89771         1.37426
C         39.19867        48.13358         1.19111
C         42.66970        24.67190        -1.02269
C         41.44877        25.03981        -0.32206
C         42.56684        27.46773        -0.54021
C         41.41409        26.59510        -0.14603
C         42.54460        28.81442        -0.22345
C         41.32138        29.51047         0.22056
C         42.58387        31.58481         0.81190
C         41.31079        30.83818         0.58369
C         42.57226        33.10355         0.78076
C         41.22244        33.81191         0.83484
C         42.21509        36.25608         0.71769
C         41.09577        35.32741         1.04090
C         42.68093        37.44863         1.22762
C         41.77256        38.23236         2.05634
C         42.81376        40.29845         1.56537
C         41.54929        39.55468         1.80562
C         42.83934        41.75732         1.85430
C         41.51853        42.48182         2.04110
C         42.79144        44.69309         1.94228
C         41.48764        43.94612         1.79177
C         42.81959        46.18806         1.92491
C         41.55316        46.82162         1.35683
C         42.83398        48.88968         1.46023
C         41.50346        48.41697         1.45818
C         43.67234        25.37602        -1.17482
C         45.09065        27.57669        -1.21057
C         43.78591        26.83840        -1.18112
C         45.11813        28.99257        -0.64857
C         43.79990        29.62943        -0.29226
C         45.12549        31.66805         0.38765
C         43.90506        30.80353         0.67349
C         45.10091        33.06238         0.47959
C         43.85279        33.78196         0.43466
C         45.08086        35.91011         0.31461
C         43.94518        35.12367         0.05307
C         45.05213        37.38274         0.14472
C         43.82125        38.17649         0.58593
C         45.09868        40.32811         0.57109
C         43.96532        39.62698         0.90449
C         45.15754        41.78780         0.70349
C         44.08465        42.50721         1.46354
C         45.08593        44.76382         0.76777
C         44.09511        44.00089         1.58687
C         45.09208        46.14422         0.77540
C         44.25653        46.89023         1.78349
C         43.93520        48.31279         1.39197
C         47.45150        27.50375        -0.61930
C         46.42704        26.98210        -1.06394
C         47.66065        28.75878         0.11001
C         46.36333        29.53872         0.03927
C         47.64925        31.70970         0.83118
C         46.45460        31.05205         0.00178
C         47.66800        33.18036         0.34802
C         46.32749        33.82262         0.52296
C         48.08098        36.26901         0.09959
C         46.22178        35.19570         0.71996
C         47.45489        37.34767        -0.77522
C         46.36887        38.10719         0.00510
C         47.34520        40.38129        -0.67998
C         46.31474        39.60002         0.07313
C         47.34245        41.85834        -0.48647
C         46.19387        42.52450         0.19040
C         47.21231        44.72772        -0.67693
C         45.94509        43.96717        -0.21925
C         46.91457        46.06707        -0.67719
C         45.89138        46.74239        -0.27125
C         50.18735        29.03915        -0.40035
C         48.97037        29.47241         0.28550
C         50.23606        31.82366         0.55643
C         49.00055        30.97063         0.66425
C         50.19976        33.17599         0.38347
C         48.96883        33.94257         0.06963
C         50.07904        35.98184        -1.20719
C         49.09476        35.42815        -0.28389
C         49.76805        37.34135        -1.88817
C         48.57191        38.18278        -1.38018
C         49.83684        40.45459        -1.30802
C         48.56949        39.68023        -1.23398
C         49.87166        41.75709        -0.86659
C         48.66414        42.56562        -0.51912
C         49.69745        44.60655        -1.48502
C         48.54341        44.10681        -0.74507
C         51.22549        29.56917        -0.81682
C         52.47849        31.77215        -1.27423
C         51.93484        30.76563        -0.52789
C         52.43285        33.04037        -1.39088
C         51.74061        34.14012        -0.95271
C         52.04298        36.18229        -2.46571
C         51.26731        35.33955        -1.59006
C         52.01855        37.38354        -2.78471
C         51.04682        38.23427        -2.01915
C         51.99316        40.65777        -2.47928
C         51.05258        39.72832        -1.84137
C         51.89838        41.88130        -2.77157
C         51.44941        42.95418        -1.97135
C         50.62857        44.07703        -2.14211
O         51.37450        33.97952         0.42772
O         42.83039        35.78197        -0.45268
O         35.29520        41.90605         0.83771
O         47.33087        35.88103         1.21474
O         48.20175        33.28534        -1.00881
O         51.51295        31.20727         0.78844
O         44.07963        37.87271        -0.81824
O         32.66163        36.01902         0.49554
O         35.79466        39.30560        -3.65437
O         51.11567        42.39881        -0.66299
O         35.33753        44.37585         0.57970
O         38.62624        26.57116         1.87964
O         35.52477        31.22716         2.53459
O         36.76140        33.42414         2.70178
O         37.07378        41.13515         2.63186
O         46.77216        28.86493         1.25727
O         43.18439        40.83443         2.92341
O         42.68188        32.35775         2.05350
O         44.66963        43.18529         2.64261
O         46.86933        41.26891        -1.74596
O         39.76266        31.97736        -0.89673
O         31.83502        34.17642        -2.02630
O         44.30004        27.45095        -2.39072
O         39.76675        28.13082        -1.15778
O         35.28209        35.65747        -1.86010
O         48.15387        39.03087        -2.49435
O         33.05532        41.42671        -2.40291
O         46.90719        38.78708         1.16575
O         48.88309        43.50554         0.55056
O         40.92849        37.51484         2.88026
O         40.81712        42.09699         3.27216
O         36.42424        42.82196        -2.43745
O         42.74571        45.50168         3.19399
O         41.70336        25.65040         0.94889
O         34.24493        30.05024        -0.05914
O         40.76814        34.60407        -0.25879
O         44.45092        29.91834        -1.56647
O         33.82143        39.00274        -0.65270
O         51.59304        38.79176        -0.83399
O         49.18464        29.89750         1.65025
O         41.64382        46.56848        -0.05545
H         40.90853        47.03477        -0.50852
O         44.13729        30.19014         1.96759
H         43.99253        30.88501         2.64970
O         40.16241        46.32571         3.30829
H         40.93218        45.87840         3.73538
O         32.92415        34.07946         1.94338
H         32.48295        34.97681         1.78220
O         34.15010        37.84062         1.52523
H         33.30041        37.36837         1.27288
O         37.73630        36.40402        -0.20924
H         37.46019        35.71007        -0.84760
O         49.37098        36.94521        -3.22098
H         49.02867        37.74366        -3.68556
O         36.86790        37.01544         3.26027
H         36.59214        37.85681         3.67998
O         45.10151        43.83293        -1.41150
H         45.01620        44.72442        -1.81569
O         44.92184        46.81704         3.01544
H         44.30529        47.04504         3.74141
O         31.68544        31.80437         2.01050
H         31.96387        32.72281         2.28535
O         38.86906        39.72405         3.71566
H         38.27674        40.49680         3.88956
O         46.71352        31.37053        -1.38353
H         45.91413        31.12635        -1.90688
O         46.79638        36.64701        -1.84979
H         47.47284        36.41253        -2.52824
O         47.31299        31.70101         2.21329
H         47.57394        30.82370         2.57896
O         39.95396        40.22171         0.23875
H         39.72760        39.32162        -0.07997
O         41.04592        32.27430        -1.52141
H         40.88998        33.17821        -1.89559
O         37.43080        39.90399        -1.28712
H         37.19321        39.81869        -2.23837
O         40.22487        32.54827         2.73177
H         39.96768        33.28214         3.32717
O         34.81592        28.66368         3.25188
H         35.48637        28.13611         3.73213
