         244
 CSIRO Nanostructure Databank - Neutral Graphene Oxide Data Set
C          1.11333         2.10418        -0.26519
C          1.08386         3.33823        -0.84014
C          2.34758         1.49607         0.10600
C          2.34794         4.06525        -1.20659
C          1.22416         6.21776        -0.43729
C          1.22029         7.63188        -0.26222
C          2.29622         5.55970        -0.96710
C          2.34743         8.41515        -0.52075
C          1.23060        10.52511         0.19463
C          1.26632        11.88230         0.54212
C          2.36808         9.84771        -0.25981
C          2.43039        12.64074         0.42317
C          1.43530        14.58703         1.68053
C          1.55080        15.84914         2.23074
C          2.49869        14.01034         0.93224
C          2.74409        16.60083         2.09393
C          2.89552        17.87570         2.73237
C          3.55646         2.18937        -0.00542
C          3.58204         3.49953        -0.51939
C          4.81343         1.51799         0.49877
C          4.79826         4.26518        -0.55172
C          3.52838         6.31659        -1.38866
C          3.55426         7.77486        -0.96580
C          4.79056         5.59778        -0.95054
C          4.73199         8.50826        -1.09902
C          3.57932        10.59422        -0.47199
C          3.60300        12.01492        -0.15629
C          4.73809         9.92598        -0.91197
C          4.76489        12.76004        -0.34880
C          3.66453        14.77593         0.73561
C          3.81738        16.06097         1.32893
C          4.75412        14.21204        -0.07806
C          5.05097        16.80123         1.23506
C          4.07516        18.56548         2.66218
C          5.19337        18.04021         1.92837
C          6.08665         2.21796         0.09079
C          6.07149         3.58838        -0.27949
C          7.29766         1.54443         0.21666
C          7.29970         4.26583        -0.45292
C          6.04635         6.32866        -1.16068
C          6.02782         7.82566        -1.34477
C          7.30618         5.77234        -0.54602
C          7.31038         8.58663        -1.20544
C          5.96718        10.66443        -1.26121
C          5.96228        12.16411        -0.96463
C          7.27006         9.96026        -1.30376
C          7.28497        12.82648        -0.73568
C          6.00616        15.02037        -0.23967
C          6.15330        16.30615         0.48256
C          7.29222        14.27999        -0.42352
C          7.37421        16.98160         0.44041
C          6.42953        18.71340         1.89574
C          7.52448        18.19932         1.17164
C          8.53302         2.20089        -0.00427
C          8.52621         3.58991        -0.33254
C          9.76616         1.54288         0.28081
C          9.78303         4.31981        -0.45476
C          8.55915         6.35571        -1.20350
C          8.56853         7.87053        -1.09599
C          9.79902         5.66904        -0.66628
C          9.76670         8.56832        -0.91987
C          8.54661        10.72069        -1.61790
C          8.54159        12.18424        -1.19544
C          9.77482        10.01969        -1.07065
C          9.70432        12.89383        -1.22753
C          8.45475        15.10037        -0.88420
C          8.46080        16.59004        -0.54793
C          9.69725        14.38247        -1.30627
C          9.85887        17.06352        -0.17134
C          8.78733        18.86514         1.17327
C          9.93151        18.32817         0.56679
C         10.99754         2.19185         0.19682
C         11.08639         3.54478        -0.48992
C         12.14906         1.57978         0.73355
C         12.25018         4.36714         0.01793
C         11.11106         6.38779        -0.85378
C         11.01689         7.88627        -0.65057
C         12.22798         5.71623        -0.07410
C         12.16984         8.60645        -0.35943
C         10.92828        10.74316        -0.95438
C         11.00881        12.16776        -1.47994
C         12.13132        10.08946        -0.41963
C         12.24229        12.98457        -1.06430
C         10.99847        15.17118        -1.49837
C         10.98225        16.48648        -0.70181
C         12.25750        14.34942        -1.19510
C         12.25898        17.24162        -0.66457
C         11.16684        18.99936         0.69992
C         12.34466        18.49203         0.12303
C         13.39869         2.22481         0.81114
C         13.54683         3.61178         0.22467
C         14.52831         1.61274         1.35053
C         14.55937         4.41158         1.05663
C         13.32124         6.56554         0.54535
C         13.41015         7.95111        -0.02765
C         14.64516         5.84069         0.58646
C         14.63871         8.61364         0.00278
C         13.41502        10.85579        -0.36056
C         13.50043        12.26342        -0.83787
C         14.67377        10.08642        -0.09253
C         14.72930        12.89737        -0.86976
C         13.57847        15.07704        -1.45532
C         13.56337        16.54792        -1.02183
C         14.81149        14.33794        -0.98474
C         14.81034        17.18837        -0.57536
C         13.56824        19.15851         0.23317
C         14.80440        18.54393        -0.13477
C         15.81044         2.26684         1.34460
C         15.86488         3.66501         1.04181
C         17.01362         1.56362         1.51033
C         17.06480         4.29931         0.78024
C         15.82916         6.46680         0.31961
C         15.88556         7.90031         0.09213
C         17.07540         5.64302         0.09094
C         17.14744         8.54366        -0.05846
C         15.98823        10.75445        -0.25885
C         16.01564        12.09934        -0.95135
C         17.23556         9.95094        -0.28012
C         17.24846        12.81901        -0.44055
C         15.99322        15.02527        -0.79407
C         16.03007        16.47592        -0.65323
C         17.25571        14.31710        -0.47146
C         17.25020        17.15288        -0.47203
C         16.03814        19.20894         0.05326
C         17.26167        18.54447        -0.15867
C         18.25529         2.21328         1.33206
C         18.28738         3.58401         0.93216
C         19.49467         1.50954         1.48726
C         19.53690         4.25230         0.73525
C         18.36829         6.39932         0.25135
C         18.38755         7.78687         0.04606
C         19.57583         5.66040         0.43119
C         19.65220         8.47087        -0.02963
C         18.46857        10.62301        -0.35667
C         18.53008        12.06060        -0.50646
C         19.69873         9.88558        -0.23105
C         19.73269        12.74145        -0.52845
C         18.52528        14.99085        -0.60515
C         18.55153        16.47732        -0.83241
C         19.79227        14.22010        -0.86888
C         19.73774        17.04451        -0.03227
C         18.51274        19.23231        -0.00234
C         19.73575        18.56010         0.02456
C         20.69148         2.14367         1.28079
C         20.74168         3.52934         0.92192
C         21.98476         4.20450         0.77595
C         20.83435         6.31907         0.34446
C         20.86826         7.73968         0.09905
C         22.02601         5.55377         0.50464
C         22.09772         8.44436         0.00320
C         20.93882        10.57240        -0.25055
C         20.97297        12.02427        -0.34914
C         22.13222         9.81370        -0.15441
C         22.14572        12.74610        -0.15684
C         21.04585        14.92316        -0.37358
C         21.08148        16.44196        -0.50452
C         22.15926        14.17414        -0.12190
C         22.22322        17.12610         0.20917
C         20.94586        19.20807         0.31711
C         22.14423        18.46125         0.49764
O         12.86153        17.38584        -1.99858
O         12.54689        10.75911         0.83870
O          5.05623        14.99741        -1.33271
O         15.37343        10.72382         1.05946
O          8.69916        14.84666        -2.30114
O         11.13091        11.96515        -2.88733
O         17.09733        13.49702         0.82606
O          5.77979        11.66746        -2.31865
O          7.48711        13.31925         0.66336
O          6.10731         6.91975        -2.50704
O         12.86558         6.77425         1.94490
H         13.34957         7.55161         2.30041
O          7.28069         6.25275         0.83327
H          8.04488         5.85845         1.30524
O          4.83140         0.14056         0.10574
H          4.83937         0.10297        -0.87271
O         16.22307        11.81164        -2.36237
H         15.83453        12.53702        -2.89614
O         11.06301        15.52812        -2.90626
H         10.81501        14.72525        -3.41609
O          8.13728        17.31598        -1.76112
H          8.46642        16.76675        -2.51257
O          3.54412         6.30965        -2.86370
H          4.45592         6.60556        -3.13180
O         18.75596        16.75983        -2.25045
H         17.91832        16.56286        -2.72076
O          8.69299        10.73421        -3.06431
H          9.57978        11.17666        -3.24083
O         21.25368        16.72251        -1.92672
H         22.18248        16.51462        -2.16002
O         16.99752         5.30712        -1.35105
H         17.83421         4.85320        -1.59034
O         11.45433         6.19065        -2.27150
H         11.45272         5.20921        -2.42053
O         11.36755         3.31260        -1.91308
H         12.31290         3.02727        -1.96348
O          8.54795         6.01354        -2.61004
H          9.40104         6.32371        -2.99045
O          2.52900         3.83365        -2.64273
H          2.95307         4.64843        -3.02188
O         19.89350        14.26403        -2.34946
H         20.04885        15.21717        -2.58262
O         14.08889         3.43477        -1.12250
H         14.58672         4.24728        -1.36598
O         19.52552        16.58398         1.32321
H         20.21800        16.98279         1.89113
O         14.09994         4.41567         2.43359
H         13.49000         5.18900         2.54172
O         13.72361        15.08155        -2.90533
H         12.92668        15.56415        -3.24689
H          0.17816         1.55272        -0.08923
H          0.12845         3.75967        -1.18510
H          2.35234         0.47569         0.51393
H          0.32351         5.65922        -0.14182
H          0.29896         8.09119         0.11832
H          0.28087         9.98885         0.32102
H          0.34573        12.33690         0.93133
H          0.50485        14.02588         1.83910
H          0.71689        16.27205         2.80956
H          2.04772        18.28191         3.30319
H          4.77941         1.51780         1.62624
H          4.18691        19.53214         3.17436
H          7.29340         0.48784         0.52194
H          6.54383        19.65992         2.44496
H          9.72900         0.52100         0.68997
H          8.87871        19.81510         1.72157
H         12.04787         0.57279         1.16975
H         11.20584        19.94339         1.26393
H         14.46417         0.57040         1.69969
H         13.59756        20.14259         0.72431
H         16.99411         0.48838         1.74239
H         16.03976        20.26369         0.36388
H         19.46933         0.44939         1.77827
H         18.49394        20.32115         0.15945
H         21.63813         1.59855         1.40786
H         22.91905         3.63958         0.90606
H         23.00567         6.04203         0.42006
H         23.04977         7.90232         0.07129
H         23.10889        10.31253        -0.20981
H         23.09405        12.22838         0.03769
H         23.11303        14.65897         0.13433
H         23.17923        16.60107         0.34897
H         20.95924        20.29719         0.46636
H         23.03075        18.98283         0.88886
