         320
 CSIRO Nanostructure Databank - Neutral Graphene Oxide Data Set
C         30.84422        32.06478         2.40735
C         30.81658        33.24033         2.05532
C         30.57422        36.24877         1.14237
C         30.51037        37.42009         0.66407
C         30.45653        40.63855         0.09059
C         30.42103        41.86705        -0.11938
C         33.08224        29.17704         2.16664
C         32.07797        29.79188         2.52016
C         33.21835        31.88471         1.82020
C         32.06430        31.27214         2.75926
C         33.12502        33.29954         1.39516
C         31.95833        34.19122         1.87914
C         32.80554        36.08842         0.45369
C         31.71796        35.42641         1.06220
C         32.72654        37.45306         0.04902
C         31.53391        38.22519         0.14946
C         32.78398        40.38991        -0.14988
C         31.45453        39.62140        -0.42641
C         32.72321        41.78552        -0.80986
C         31.63106        42.73890        -0.10641
C         32.79409        44.55459        -1.45555
C         31.83870        43.99231        -0.90961
C         35.73230        27.45480         1.42127
C         35.28721        28.81573         0.91440
C         34.47383        29.64268         1.89517
C         35.26857        31.56416         0.34616
C         34.25825        31.10881         1.40373
C         35.23628        33.06538         0.07167
C         34.08487        33.85483         0.60126
C         35.32282        35.99034         0.14272
C         33.97356        35.22914        -0.03875
C         35.23409        37.36176        -0.55876
C         34.04364        38.21133        -0.01517
C         35.27708        40.32680        -0.58878
C         33.93389        39.56975        -0.74187
C         35.22147        41.68963        -1.41103
C         34.11023        42.35074        -0.64730
C         35.28473        44.67747        -1.55510
C         34.05446        44.36973        -2.13692
C         35.51904        45.73811        -0.63555
C         37.78085        27.23206         0.17292
C         36.64416        26.75205         0.96973
C         37.75246        28.76474         0.08368
C         36.61282        29.51696         0.58386
C         37.80596        31.67763        -0.15072
C         36.68457        31.02631         0.68152
C         37.78564        33.00781        -0.42100
C         36.50267        33.76537        -0.35791
C         37.73077        35.91162        -0.57206
C         36.57989        35.24301        -0.30716
C         37.78692        37.38414        -0.16995
C         36.52030        38.13035        -0.48465
C         37.73180        40.31004        -0.50205
C         36.53893        39.53312        -1.05261
C         37.75040        41.84389        -0.61239
C         36.56647        42.42312        -1.42065
C         37.88266        44.62651        -1.25751
C         36.60210        43.91603        -1.67323
C         37.78604        46.15756        -1.17539
C         36.55270        46.31897        -0.23162
C         40.36548        24.53593         0.62184
C         39.29735        25.15574         0.62956
C         40.35526        27.26522         0.24864
C         39.05932        26.46172        -0.08405
C         40.29989        28.69298        -0.38372
C         39.07738        29.51472         0.09183
C         40.27740        31.61867        -0.63170
C         38.96857        30.83876        -0.68499
C         40.25982        32.97196        -0.73628
C         38.97145        33.66289        -1.14858
C         40.25481        35.95431        -0.43167
C         39.02434        35.27342        -1.10684
C         40.26189        37.30834        -0.24554
C         39.04148        38.11140        -0.69125
C         40.26232        40.32446        -0.10825
C         38.98246        39.56031        -0.21508
C         40.36408        41.69307        -0.75007
C         39.06447        42.41327        -1.21225
C         40.16441        44.57714        -0.20895
C         39.02272        43.93665        -0.95051
C         40.12911        46.07686        -0.02466
C         39.02321        46.82201        -0.68928
C         40.39760        48.85443        -0.54559
C         39.33149        48.14346        -0.71274
C         42.93093        24.45714         0.02161
C         41.52223        24.89436        -0.26754
C         42.72446        27.16776        -0.54769
C         41.59420        26.49519        -0.22266
C         42.81773        28.65995        -0.33338
C         41.58129        29.46644        -0.04920
C         42.89952        31.56985        -0.68870
C         41.57883        30.98645        -0.19345
C         42.64438        32.83052         0.10509
C         41.54065        33.70276        -0.49880
C         42.71573        35.82384         0.37856
C         41.52663        35.18554        -0.27268
C         42.63250        37.26558         0.78105
C         41.28330        38.01263         0.66308
C         42.82664        40.09260        -0.01671
C         41.45229        39.54576         0.35891
C         42.87368        41.64344        -0.08342
C         41.63509        42.42847        -0.47465
C         42.73759        44.66929         0.31242
C         41.50986        43.87995        -0.05256
C         42.70091        46.01996         0.52286
C         41.44654        46.81381         0.27720
C         42.93385        48.67475        -0.05103
C         41.58188        48.26306        -0.18007
C         43.88207        25.05364        -0.48840
C         45.26687        27.13674        -0.57883
C         44.02136        26.43405        -1.05026
C         45.29990        28.63674        -0.43268
C         44.04501        29.37515        -0.88249
C         45.24164        31.44333         0.19323
C         44.04582        30.85003        -0.53821
C         45.20198        32.98047         0.07733
C         43.86864        33.57124         0.70520
C         45.14093        35.80345         1.12607
C         43.86201        35.11639         0.59549
C         45.22271        37.32216         0.92980
C         43.91340        38.03370         1.00563
C         45.28837        40.17581         0.68054
C         43.88137        39.57030         0.98914
C         45.21396        41.67005         1.02220
C         44.07929        42.41176         0.35607
C         45.22007        44.62208         1.04180
C         44.02619        43.91947         0.47021
C         45.12345        46.07775         1.36476
C         43.85647        46.83019         1.17763
C         43.98007        48.06452         0.25672
C         47.72739        27.25395        -0.79335
C         46.64110        26.67466        -0.81950
C         47.92377        28.63215        -0.21241
C         46.60661        29.38248        -0.51532
C         47.84943        31.51966         0.27432
C         46.57799        30.85407        -0.26905
C         47.75541        33.03778         0.22388
C         46.46124        33.64193         0.75230
C         47.68472        35.81843         0.96750
C         46.41407        35.17655         0.50518
C         47.63365        37.18918         1.56857
C         46.40759        37.97572         1.10696
C         47.76121        40.23441         1.28365
C         46.40895        39.45988         1.47120
C         47.71864        41.66662         1.91620
C         46.40094        42.39911         1.57806
C         47.72270        44.58715         1.10547
C         46.42639        43.92291         1.67827
C         47.60202        46.05557         1.64423
C         46.42140        46.52224         1.56295
C         50.04222        29.15768        -1.77091
C         49.13564        29.43914        -0.65012
C         50.10702        31.81301        -0.98257
C         49.13064        30.95212        -0.35345
C         49.90688        33.30978        -0.98461
C         48.84510        33.80457        -0.01522
C         49.83920        36.21119        -0.17084
C         48.98422        35.16950         0.64796
C         50.12962        37.41136         0.73871
C         48.98253        37.96685         1.49799
C         50.29259        40.25569         1.64336
C         49.00285        39.47814         1.75975
C         50.32203        41.79200         1.51080
C         48.96257        42.46270         1.53048
C         50.16508        43.96631        -1.52484
C         48.96133        43.83559         1.49408
C         50.87266        29.91986        -2.29189
C         52.05420        32.30360        -2.31042
C         51.40121        31.16841        -1.59584
C         52.10681        33.47399        -1.92203
C         51.25358        34.06434        -0.81133
C         52.15308        36.39618        -0.59514
C         51.08829        35.55447        -0.77376
C         52.33719        37.61315        -0.23483
C         51.35903        38.07877         0.71885
C         52.49539        40.31610         0.54943
C         51.53917        39.44133         1.24779
C         52.33532        41.51789         0.23558
C         51.11226        42.24208         0.20529
C         50.64999        43.12169        -0.72541
O         40.73236        40.38493         1.28995
O         45.08818        44.44863        -0.40550
O         41.90743        31.87170         1.04803
O         43.17310        37.46988         2.13621
O         40.44710        46.56980         1.31336
O         45.15538        27.75745         0.72162
O         41.92874        34.58742        -1.58961
O         49.14161        38.55642         2.84699
O         36.78436        42.97972        -2.75472
O         37.36070        27.86959        -1.06244
O         40.50335        43.90097         1.03215
O         38.04763        39.86726         0.85634
O         35.52462        33.30083        -1.35250
O         51.28536        39.77458         2.61427
O         43.92873        42.02256        -1.04643
O         45.30920        41.92010         2.44370
O         49.86213        29.89791         0.51123
O         42.41628        28.99802         1.04084
O         46.65226        30.33361        -1.62333
O         41.34326        41.93256        -1.82960
O         37.62135        42.39666         0.70365
H         37.63099        41.65252         1.35148
O         39.29473        29.87541         1.47711
H         39.61230        29.06120         1.94903
O         32.42844        31.53214         4.08963
H         31.69836        31.26310         4.68375
O         46.38401        44.21003         3.08695
H         46.85576        43.49062         3.56653
O         45.60008        39.98463        -0.70628
H         44.96704        40.52695        -1.24736
O         32.35211        41.77362        -2.21657
H         32.97665        41.13994        -2.65438
O         34.89559        30.92844        -0.88817
H         34.15886        31.43127        -1.29358
O         46.33351        35.47782        -0.92416
H         47.24257        35.67533        -1.26506
O         39.10521        35.65044        -2.50770
H         39.93461        35.25669        -2.86156
O         31.98623        43.02272         1.24435
H         31.60091        42.32616         1.81806
O         41.20844        24.51154        -1.58089
H         41.07759        23.54200        -1.61135
O         33.73386        39.28795        -2.17213
H         32.75461        39.10147        -2.27285
O         51.82802        33.64064         0.41436
H         52.62148        34.18403         0.60349
O         43.41443        47.26939         2.44658
H         42.54530        47.71480         2.35922
O         33.64227        34.95212        -1.40959
H         34.09190        35.61757        -1.98699
O         34.45297        42.90515         0.46806
H         33.65557        43.08566         1.05099
O         48.09061        40.40812        -0.11133
H         47.27103        40.33182        -0.66638
O         35.45979        36.18055         1.58640
H         35.27616        35.32306         2.03097
O         35.03918        37.05517        -1.97373
H         34.58845        37.83869        -2.39039
O         34.86177        41.40789        -2.75672
H         35.50837        41.88327        -3.33735
O         35.49729        40.70574         0.76161
H         35.12905        39.99612         1.35044
O         46.42882        33.43073         2.17237
H         46.67957        32.48407         2.33186
O         39.07073        38.25618        -2.11726
H         39.00266        37.35941        -2.53555
O         47.65789        44.62158        -0.28956
H         48.56413        44.66273        -0.69508
O         52.25406        30.74142        -0.57147
H         51.71686        30.21023         0.06455
O         40.30584        28.57619        -1.80629
H         39.49512        28.09488        -2.09126
O         36.97731        31.41215         2.04966
H         37.83258        30.97689         2.28681
O         35.18917        29.68366         3.11804
H         34.66976        30.20096         3.76924
O         40.39234        27.41191         1.68117
H         41.30408        27.71378         1.92068
O         47.34927        36.99910         3.00154
H         48.11224        36.52235         3.39582
O         49.73831        34.95235         1.87187
H         49.33360        34.19584         2.34849
O         39.01218        42.16902        -2.62036
H         39.91496        42.29080        -2.99033
O         31.13426        39.42607        -1.82553
H         31.01150        40.32723        -2.20945
O         46.09218        39.47017         2.88630
H         46.53262        38.67309         3.28532
O         50.07434        44.58154         1.54978
H         50.83288        44.03968         1.86872
O         44.02137        26.39798        -2.46125
H         43.20812        25.94448        -2.76687
O         34.53307        28.56405        -0.25583
H         35.13723        28.18078        -0.92944
O         43.97066        29.26044        -2.32139
H         44.72723        29.76225        -2.69887
O         45.17805        33.20070        -1.33321
H         45.40279        34.14443        -1.52673
O         47.75620        41.55920         3.35438
H         46.98784        40.99254         3.61567
O         36.62311        39.50793        -2.48615
H         35.72291        39.35810        -2.85127
O         49.36730        33.69900        -2.28437
H         50.03546        33.46003        -2.96585
O         45.11451        31.02483         1.56366
H         44.34886        31.51171         1.96464
O         38.77434        33.28608        -2.54147
H         37.91184        33.65579        -2.83167
O         48.92568        36.60790        -1.22805
H         49.42284        37.12428        -1.89856
O         47.95624        28.49754         1.20887
H         48.78520        28.04065         1.46493
O         40.68050        37.90791         1.96024
H         40.14906        38.72190         2.12158
O         43.44199        40.05060         2.25562
H         44.11830        39.80650         2.92939
O         43.10550        39.58514        -1.33390
H         42.64692        40.16430        -1.98533
O         34.30388        38.51434         1.38040
H         34.55813        37.67657         1.83953
O         38.62897        30.53548        -2.04812
H         38.63419        31.39283        -2.54231
O         45.14835        35.60646         2.55569
H         44.40453        36.15062         2.91154
O         37.47124        46.68977        -2.44126
H         36.62600        46.30652        -2.75673
O         39.10408        26.15972        -1.47285
H         38.23474        25.80474        -1.75274
O         32.33433        34.65917         3.18882
H         31.61192        35.22962         3.52708
O         33.98397        43.73597        -3.32711
H         33.08776        43.34545        -3.43912
O         43.81133        33.29645         2.11309
H         44.54755        33.80230         2.55145
O         51.13591        42.32265         2.57279
H         51.56572        41.55780         3.03172
O         37.97719        37.33962         1.28022
H         37.14165        37.00329         1.68432
O         47.88991        31.22703         1.69528
H         47.92448        30.23819         1.79759
