         651
 CSIRO Nanostructure Databank - Neutral Graphene Oxide Data Set
C          5.89381        31.86167         1.43492
C          6.00333        33.15009         1.01593
C          8.42952        27.53517         1.48513
C          8.44183        28.91207         1.39670
C          7.21816        29.67280         1.76598
C          8.58396        31.83825         0.42130
C          6.81697        30.77975         1.08280
C          8.43300        33.17788         0.48353
C          7.08099        33.76786         0.10119
C          8.30516        36.03168         0.15023
C          7.12080        35.27316         0.17904
C          8.27839        37.43816         0.17809
C         10.85938        23.12628         1.01877
C         10.78760        24.53397         0.90400
C          9.63461        25.26024         1.19439
C         10.88457        27.47849         0.88139
C          9.65027        26.73129         1.32945
C         10.82668        28.93915         0.66784
C          9.66074        29.61796         0.99955
C         10.97493        31.77697         0.61756
C          9.71510        31.12145         1.11225
C         10.98941        33.22268         0.63770
C          9.62490        34.01521         0.72646
C         10.82328        36.07331        -0.00808
C          9.61992        35.38067         0.24177
C         10.67114        37.50882        -0.47372
C          9.56156        38.21289         0.32669
C         10.78535        40.38904        -0.07652
C          9.43697        39.68668        -0.08209
C         10.84310        41.73329         0.17273
C         13.33357        18.76626         1.06516
C         13.29534        20.23787         1.10293
C         12.06061        21.00153         0.96454
C         13.31842        23.10307         0.54111
C         12.07330        22.39549         0.86160
C         13.27628        24.51545         0.27973
C         11.97923        25.22028         0.33089
C         13.25025        27.43195         0.02555
C         11.98093        26.71845         0.21331
C         13.24318        28.86491         0.00319
C         12.05038        29.60372         0.27274
C         13.32585        31.71763        -0.09722
C         12.10198        31.03863         0.21814
C         13.32977        33.17687        -0.34377
C         12.07669        33.94983        -0.04814
C         13.27316        36.06363        -0.57556
C         12.08125        35.42454        -0.07772
C         13.14939        37.49054        -0.94560
C         11.97205        38.26412        -0.49115
C         13.25082        40.36534        -0.57419
C         11.99453        39.64023        -0.40071
C         13.30136        41.77972        -0.21397
C         12.07785        42.47964         0.16294
C         13.30678        44.60493         0.46633
C         12.09085        43.84410         0.42410
C         13.36536        45.97780         0.62362
C         15.75423        14.48145         0.67223
C         15.72479        15.89421         0.50806
C         14.53822        16.63169         0.79970
C         15.67659        18.77164         0.24048
C         14.48860        18.04449         0.77277
C         15.83943        20.22369         0.55628
C         14.59396        21.01028         0.84926
C         15.71432        23.05313        -0.12238
C         14.52486        22.41031         0.40007
C         15.68052        24.49837        -0.25562
C         14.44890        25.21921         0.00278
C         15.65993        27.36944        -0.21068
C         14.44626        26.67770        -0.10020
C         15.62978        28.76984        -0.66473
C         14.43205        29.56593        -0.37208
C         15.67517        31.72161        -0.88770
C         14.47959        30.97768        -0.39652
C         15.84412        33.18712        -0.55887
C         14.60521        33.98516        -0.14393
C         15.71562        36.10521        -1.12622
C         14.50856        35.40452        -0.70596
C         15.68249        37.47652        -1.37478
C         14.41284        38.24587        -1.28779
C         15.63152        40.45472        -1.19893
C         14.39727        39.69561        -0.97704
C         15.71043        41.89641        -0.77562
C         14.50087        42.46669        -0.17353
C         15.87113        44.58636         0.27021
C         14.56637        43.83625         0.36598
C         15.84380        46.05755         0.28441
C         14.59865        46.72925         0.54581
C         15.80663        48.87496         0.54549
C         14.60431        48.12348         0.66308
C         15.81663        50.27928         0.70157
C         18.31060        10.16059         0.75542
C         18.19256        11.57915         0.66047
C         17.00124        12.29419         0.62563
C         18.13204        14.47066         0.21133
C         16.94623        13.74847         0.52253
C         18.11122        15.85506        -0.06393
C         16.91313        16.56914         0.07493
C         18.16740        18.76745        -0.47292
C         16.89578        18.01951        -0.20994
C         18.16801        20.14762        -0.53827
C         17.04813        20.93254         0.03548
C         18.06596        22.98978        -0.97864
C         16.91279        22.35523        -0.33230
C         18.05738        24.52924        -1.01607
C         16.86481        25.19369        -0.49690
C         18.20675        27.35605        -0.40501
C         16.91454        26.62855        -0.21586
C         18.15602        28.85207        -0.52460
C         16.89999        29.46174        -1.05819
C         18.22032        31.65504        -1.31080
C         16.91310        30.95178        -1.25505
C         18.15564        33.10142        -1.79112
C         17.06874        33.89712        -1.03440
C         18.16152        36.01299        -1.63976
C         17.01059        35.38257        -1.26588
C         18.23309        37.49248        -1.98885
C         16.90316        38.23648        -1.75266
C         18.16413        40.39138        -1.02855
C         16.90494        39.71888        -1.49283
C         18.23325        41.87267        -0.93273
C         17.02971        42.56769        -0.63843
C         18.29690        44.62717        -0.31048
C         17.07089        43.91255        -0.27293
C         18.29289        46.04659        -0.11882
C         17.03501        46.76090         0.09898
C         18.24236        48.91757         0.16022
C         17.04057        48.19145         0.24783
C         18.24980        50.31280         0.40143
C         17.01656        51.00841         0.63965
C         18.24615        53.13722         0.76243
C         17.06032        52.43088         0.80272
C         18.21436        54.63279         0.99823
C         20.90115         6.06955         1.51961
C         20.86838         7.43111         1.19581
C         19.62578         8.10185         1.03414
C         20.81128        10.14403         0.25310
C         19.53948         9.47191         0.73767
C         20.69460        11.64724         0.33990
C         19.46601        12.37270         0.82329
C         20.61341        14.58051         0.41845
C         19.40643        13.70180         0.03754
C         20.65806        15.87336        -0.37033
C         19.33552        16.57091        -0.53625
C         20.62479        18.68380        -0.84277
C         19.39120        18.03583        -0.66460
C         20.63195        20.08465        -1.29795
C         19.33201        20.85349        -1.09286
C         20.58804        23.03084        -1.25904
C         19.38319        22.32599        -1.05203
C         20.55082        24.49900        -1.27233
C         19.37891        25.19502        -1.09416
C         20.67399        27.44100        -1.03226
C         19.35944        26.67629        -1.05309
C         20.72141        28.80751        -0.32814
C         19.42561        29.62653        -0.49139
C         20.67652        31.74392        -1.05138
C         19.39144        31.01927        -1.02514
C         20.65920        33.13403        -1.55694
C         19.48284        33.80306        -1.68691
C         20.62032        35.88250        -1.04100
C         19.48080        35.29928        -1.92411
C         20.58944        37.40868        -0.93717
C         19.42157        38.16244        -1.31488
C         20.69873        40.37696        -1.04658
C         19.43374        39.59987        -0.97012
C         20.71473        41.75438        -0.98875
C         19.48230        42.52062        -0.84417
C         20.73878        44.66082        -0.50687
C         19.51479        43.93642        -0.58811
C         20.74520        46.04368        -0.26152
C         19.50473        46.73739        -0.15956
C         20.72421        48.83457         0.44257
C         19.51917        48.23656        -0.29396
C         20.73234        50.32066         0.16826
C         19.47212        51.05745         0.39144
C         20.75675        53.17202         0.61222
C         19.49113        52.44506         0.56789
C         20.75265        54.60147         0.70764
C         19.53134        55.33852         0.76148
C         20.76773        57.45949         0.47727
C         19.56293        56.72085         0.69906
C         20.67976        58.89350         0.44956
C         23.28309         3.37614         2.51306
C         22.10675         4.01759         2.17239
C         23.34917         6.12000         1.84856
C         22.10996         5.39862         1.83591
C         23.35956         7.52596         1.57832
C         22.11928         8.19708         1.19831
C         23.29108        10.38543         1.24061
C         22.09146         9.54094         0.87961
C         23.66414        11.50393         0.30220
C         21.72746        12.44343        -0.13048
C         23.11682        14.52911         0.45944
C         21.86674        13.81245         0.15943
C         23.08280        16.02462         0.29225
C         21.88352        16.67175        -0.24402
C         23.14424        18.76158        -0.60958
C         21.88485        18.02820        -0.54204
C         23.09093        20.27852        -0.67384
C         21.94834        20.83875        -1.53602
C         23.09627        23.08679        -1.36665
C         21.85347        22.35440        -1.34729
C         23.08939        24.48229        -1.42717
C         21.81551        25.26018        -1.65853
C         23.15164        27.30743        -0.59230
C         21.88395        26.65798        -1.08550
C         23.14022        28.80782        -0.87380
C         21.97579        29.51613        -0.78516
C         23.20887        31.60407        -1.53477
C         21.96829        30.99303        -0.90856
C         23.23669        33.10233        -1.43255
C         21.96894        33.82329        -1.67947
C         23.20049        35.91190        -0.88025
C         21.95432        35.31563        -1.52607
C         23.21739        37.43035        -0.96155
C         21.93835        38.17094        -0.81297
C         23.28094        40.34144        -0.98303
C         21.95330        39.61474        -1.19057
C         23.27197        41.77460        -0.74078
C         22.01594        42.49044        -1.03891
C         23.27064        44.62661        -0.32815
C         22.01723        43.97463        -0.77719
C         23.24774        46.03185        -0.19140
C         22.02193        46.76675        -0.16036
C         23.26343        48.87539         0.30428
C         22.03047        48.15074         0.09271
C         23.25951        50.28352         0.52716
C         22.02797        51.05179         0.27462
C         23.21844        53.17316         0.77772
C         21.98457        52.49170         0.55229
C         23.19993        54.58128         0.88436
C         21.98937        55.31546         0.72102
C         23.28966        57.38851         0.41620
C         22.00931        56.73825         0.50814
C         23.47960        58.60028        -0.23339
C         21.66530        59.69977        -0.12558
C         23.31689        61.54351        -0.13769
C         22.02466        61.05163         0.11088
C         24.50535         4.07963         2.50665
C         25.90203         6.10877         2.09042
C         24.55256         5.43002         2.17473
C         25.83291         7.61589         2.00742
C         24.57891         8.24787         1.70314
C         25.72806        10.42608         1.71293
C         24.57419         9.66740         1.57072
C         25.65984        11.94261         1.66629
C         24.60616        12.38883         0.68119
C         25.69041        14.64700         0.40000
C         24.45891        13.86570         0.59400
C         25.67301        15.98406         0.10947
C         24.40598        16.76132         0.11146
C         25.63013        18.70480        -0.99527
C         24.34786        18.10292        -0.47866
C         25.58800        20.21636        -0.96962
C         24.41618        20.92849        -1.04385
C         25.59010        23.04384        -1.52782
C         24.39432        22.36913        -1.32215
C         25.65879        24.51276        -1.71866
C         24.33455        25.26375        -1.58650
C         25.60370        27.33917        -1.02398
C         24.39854        26.65761        -1.13713
C         25.60346        28.75958        -0.76990
C         24.42435        29.50104        -0.91710
C         25.64766        31.65932        -0.90305
C         24.45922        30.92639        -1.03950
C         25.66429        33.06405        -1.10791
C         24.43875        33.77481        -1.32725
C         25.74040        35.95594        -1.11033
C         24.46331        35.27696        -1.53045
C         25.68552        37.42698        -1.05889
C         24.38912        38.10389        -0.82840
C         25.67370        40.25477        -0.19316
C         24.35701        39.51717        -0.31155
C         25.61251        41.65612         0.05770
C         24.42414        42.41971        -0.22769
C         25.63770        44.55286         0.38722
C         24.43946        43.86165        -0.07973
C         25.67690        45.94256         0.36976
C         24.56540        46.76452        -0.23081
C         25.68775        48.86897         0.62177
C         24.50446        48.18071         0.30574
C         25.65943        50.24904         0.90950
C         24.44814        50.98383         0.82741
C         25.65997        53.14228         1.16149
C         24.45052        52.43981         0.93966
C         25.70528        54.54478         1.21927
C         24.44294        55.27614         1.21696
C         25.81068        57.42439         0.78157
C         24.49161        56.79660         1.01197
C         25.83997        58.76179         0.33856
C         24.64513        59.41588        -0.07668
C         24.51817        60.82159        -0.25847
C         26.98620         8.36732         2.14084
C         28.16623        10.56633         1.95577
C         26.99283         9.79455         1.96754
C         28.16851        11.94185         1.51527
C         26.96143        12.59327         1.26555
C         28.18622        14.67953         0.52903
C         26.95676        13.82789         0.38470
C         28.15586        16.01034         0.18502
C         26.91512        16.72061        -0.09254
C         28.14010        18.84406        -0.39578
C         26.90336        18.06252        -0.44691
C         28.11588        20.22147        -0.74899
C         26.88755        20.84672        -1.28191
C         28.17041        23.09065        -1.61490
C         26.87398        22.31900        -1.63035
C         28.16238        24.55394        -1.45332
C         26.92116        25.24826        -1.45850
C         28.08808        27.36283        -1.04076
C         26.88434        26.65240        -1.20598
C         28.13087        28.69903        -0.44150
C         26.80196        29.42975        -0.14168
C         28.16673        31.67731        -0.42539
C         26.85595        30.95750        -0.37491
C         28.23744        33.06095        -1.00348
C         26.93881        33.80629        -1.23320
C         28.19301        36.01052        -0.85912
C         26.94586        35.29411        -1.09250
C         28.19363        37.37068        -0.58538
C         26.95199        38.16611        -0.70757
C         28.09399        40.11224         0.41805
C         26.85942        39.52273        -0.12807
C         28.04964        41.55755         0.88178
C         26.70177        42.30338         0.89075
C         28.01949        44.42362         1.07593
C         26.82807        43.80018         0.73651
C         28.01048        45.85078         1.41722
C         26.79014        46.65419         0.99703
C         27.99329        48.80102         1.64823
C         27.01146        48.11529         0.64870
C         28.19615        50.24610         1.24630
C         26.93456        50.99409         1.04472
C         28.20041        53.12825         1.47169
C         26.88635        52.38899         1.60456
C         28.17359        54.52056         1.37069
C         26.95114        55.26338         1.26752
C         26.97182        56.66409         1.05461
C         29.39942        12.66564         1.30793
C         30.63386        14.75835         0.88596
C         29.42486        14.00162         0.89201
C         30.66587        16.09701         0.48886
C         29.44139        16.72177        -0.13797
C         30.54495        18.97440         0.49215
C         29.34139        18.21537        -0.01097
C         30.56606        20.43668         0.05253
C         29.31103        21.04694        -0.54240
C         30.65573        23.17768        -0.89213
C         29.45112        22.37999        -1.20221
C         30.64886        24.55868        -1.15018
C         29.39656        25.23441        -1.35586
C         30.68377        27.46601        -1.37642
C         29.35673        26.70566        -1.40698
C         30.70862        28.86365        -0.92641
C         29.46386        29.47914        -0.45516
C         30.64201        31.65365        -0.40462
C         29.44781        30.94182        -0.39070
C         30.62749        33.12349        -0.38401
C         29.46476        33.81125        -0.73526
C         30.71277        35.96889        -0.51707
C         29.50706        35.27046        -1.09885
C         30.72316        37.46976        -0.68374
C         29.40709        38.12494        -0.32824
C         30.62260        40.16300         0.39656
C         29.37333        39.43414         0.08211
C         30.58734        41.59360         0.83102
C         29.30950        42.34575         0.89280
C         30.54406        44.47270         1.24891
C         29.29882        43.71629         1.07123
C         30.57377        45.83691         1.46026
C         29.30845        46.56079         1.69308
C         30.60850        48.78334         1.65024
C         29.31782        48.05462         1.81285
C         30.61371        50.21419         1.69959
C         29.44018        50.97331         1.61576
C         29.40315        52.38912         1.60377
C         31.85521        16.84250         0.47767
C         33.03048        18.94085         0.05815
C         31.85291        18.24191         0.26097
C         33.06837        20.36198        -0.14474
C         31.84777        21.10232        -0.23385
C         33.11888        23.16640        -0.64362
C         31.86825        22.47714        -0.56132
C         33.16038        24.56397        -0.91404
C         31.90921        25.30241        -1.11012
C         33.19819        27.43203        -1.35447
C         31.93071        26.67682        -1.26012
C         33.19600        28.93634        -1.13782
C         31.89822        29.59706        -0.83368
C         33.17142        31.77490        -0.57204
C         31.88981        30.97253        -0.52326
C         33.03728        33.02950         0.32974
C         31.82969        33.82168        -0.11579
C         33.09690        35.92911         0.24864
C         31.84053        35.24421        -0.15940
C         33.12914        37.40783         0.24427
C         31.91462        38.17612        -0.10067
C         33.23530        40.28678        -0.02163
C         31.91668        39.52468         0.05865
C         33.15251        41.75372         0.36080
C         31.84455        42.39340         0.67587
C         33.14092        44.48660         1.39896
C         31.82453        43.73762         1.32176
C         33.04252        45.94595         1.38324
C         31.82001        46.59323         1.50279
C         31.77527        48.03929         1.55801
C         34.29145        21.03366        -0.26457
C         35.57162        23.13120        -0.43760
C         34.34076        22.43817        -0.45691
C         35.62075        24.52398        -0.61460
C         34.40776        25.21844        -0.93726
C         35.73037        27.38830        -0.76521
C         34.48115        26.66229        -1.21041
C         35.57222        28.77472        -0.24686
C         34.41270        29.60345        -0.60339
C         35.58666        31.59784         0.23305
C         34.39733        30.94203        -0.23306
C         35.55785        33.02818         0.71295
C         34.33256        33.80472         0.32364
C         35.63556        35.89241         0.32993
C         34.38135        35.17445         0.24832
C         35.68895        37.36420         0.22385
C         34.42397        38.14169         0.17297
C         35.69003        40.28219         0.62559
C         34.36677        39.55269         0.72283
C         35.66270        41.66781         0.67633
C         34.43216        42.43818         0.72967
C         34.40154        43.76878         1.06745
C         36.84804        25.23333        -0.36528
C         38.09869        27.33959         0.03086
C         36.91144        26.61938        -0.29650
C         38.12176        28.73712         0.16831
C         36.83635        29.46364         0.25179
C         38.05496        31.62634         0.45366
C         36.81180        30.92708         0.31727
C         38.06105        33.05897         0.50754
C         36.85185        33.77089         0.50569
C         38.10602        35.92727         0.56138
C         36.84854        35.19582         0.46985
C         38.11699        37.33182         0.65415
C         36.92897        38.10379         0.56502
C         36.89477        39.50227         0.65926
C         39.30564        29.49520         0.29943
C         40.51740        31.64664         0.51643
C         39.28519        30.90080         0.43585
C         40.53297        33.01253         0.56813
C         39.31359        33.77978         0.54913
C         39.31458        35.17249         0.60637
O         28.98359        28.74024         0.75640
O         15.85865        18.45095        -1.17968
O         29.95180        27.28355        -2.64366
O         16.77159        39.21825        -2.85590
O         28.01417        40.46394         1.86083
O         26.45663        38.11002        -2.11068
O         19.72696        20.31241        -2.42181
O         16.95766        33.45937         0.36127
O         16.19152        28.76871        -2.10460
O         32.37958        42.47522        -0.68890
O         10.49056        33.81062         1.87775
O         15.97758        31.40562        -2.29312
O         35.11961        37.91268        -1.06743
O         19.81376        27.37201        -2.25718
O         22.47636        59.05355        -1.09380
O         22.80934        11.80125        -0.76465
O         21.40971        31.66894         0.24479
O         23.66680        14.22555         1.80683
O         11.60275        25.89427        -0.94125
O         14.13911        20.80365         2.20848
O         20.01094        15.88197        -1.67107
O         18.61589        39.83318         0.26824
O         24.96672        25.01570        -2.90310
O         27.71850        33.24676        -2.36350
O         35.47991        27.13181        -2.17694
O         17.75104        23.72919        -2.20525
O          7.55265        31.04850        -0.10483
O         35.88730        28.82898         1.18291
O         29.09233        22.53623        -2.60347
O         27.38181        31.64098         0.82584
O         13.46982        37.82087        -2.34763
O         21.16460        37.89627         0.36060
O         22.10495        43.45023        -2.15659
O         30.70396        40.54764         1.84622
O         22.04739        34.76168        -2.83129
O         26.98387        46.24650         2.38527
O         29.31912        47.21842         3.01500
O         33.24474        28.37546        -2.48667
O         10.73383        27.13554         2.29744
O         26.90421        21.30018        -2.69374
O         23.70101        16.73426         1.40275
O         23.09471        35.61703         0.48162
O         27.80061        50.69090        -0.11137
O         17.88842        26.91557         0.94138
O         15.46016        41.53205        -2.19176
O         18.57499        29.52096         0.71035
O         32.50071        43.84970         2.60175
O         24.31298        56.22994         2.33644
O         15.43871        43.97292         1.55069
O         32.93328        36.68252         1.51656
O         22.82135        39.93094        -2.31057
O         29.66464        21.23463         0.90489
O         16.90062        20.58953         1.48919
O         21.42319        50.69316        -1.06414
O         12.41084        33.49227        -1.42754
O         24.39006        35.56135        -2.95074
H         25.26315        35.37646        -3.35599
O         33.34294        32.27364        -1.92574
H         33.35365        31.50739        -2.53817
O         23.07805        31.29088        -2.96421
H         23.75859        31.79882        -3.45518
O         17.16620        55.23940         0.23008
H         17.35896        55.09517        -0.71885
O         14.67142        34.13225         1.30198
H         15.62713        34.21424         1.53584
O         30.86319        37.70967        -2.14615
H         31.80721        37.58160        -2.38530
O         22.77050        20.69690         0.68485
H         23.37106        20.23292         1.30593
O         27.61205        48.09485        -0.66104
H         27.65762        49.03050        -0.97624
O         23.21669        27.12004         0.85838
H         22.47348        27.63995         1.25727
O         29.68100        35.30951        -2.56071
H         29.90365        36.24641        -2.79080
O         22.31897        20.60672        -2.91027
H         21.50681        20.72221        -3.45320
O         19.79958        35.53045        -3.30096
H         19.14656        35.04392        -3.84718
O         19.59745        12.61192         2.25764
H         18.72045        12.89351         2.59503
O         34.02422        39.42877         2.11596
H         33.98168        40.31996         2.52063
O         20.87757        28.51739         1.08228
H         20.02905        28.76537         1.52986
O         26.75010         5.69447         3.16997
H         26.35356         6.00699         4.00860
O         20.53902        15.01464         1.79277
H         20.63861        14.21519         2.36288
O         32.77234        32.57432         1.68006
H         33.64263        32.47491         2.14318
O         27.34618        48.87282         2.92948
H         27.53288        48.01929         3.39220
O         10.22452        37.45808        -1.86358
H         10.98934        37.19045        -2.41893
O         30.39347        18.97435         1.95059
H         29.84647        19.76580         2.16860
O         20.46305        35.37861         0.28965
H         21.37145        35.46489         0.71948
O         17.81906        33.12589        -3.20106
H         17.04208        32.52637        -3.32845
O         23.93457        39.42367         1.09513
H         23.45727        38.57599         1.23661
O         35.43654        32.90099         2.20722
H         35.51059        33.80632         2.58146
O         19.51027        13.31272        -1.35075
H         19.50384        14.14136        -1.89191
O         25.32747        12.41131         3.00192
H         24.34762        12.33343         3.09221
O         18.50652        37.56555        -3.41340
H         18.05463        38.37457        -3.75616
O         33.60137        40.25395        -1.42096
H         33.13076        40.99637        -1.86207
O          9.93063        38.20522         1.73026
H          9.98215        37.27225         2.03000
O         26.69097        52.17945         3.04227
H         26.63782        53.05954         3.47125
O          6.75400        33.41163        -1.26615
H          6.79620        32.42839        -1.31618
O          8.85148        39.78459        -1.38469
H          9.28479        39.10759        -1.95748
O         24.87969        46.90839        -1.66568
H         24.11008        47.33795        -2.09646
O         25.66573        18.37234        -2.43169
H         25.98716        19.16021        -2.92435
O         19.67499        48.48731        -1.71684
H         20.08416        49.37228        -1.84341
O          9.53967        31.42743         2.53549
H         10.38464        31.23193         2.99246
O         22.86189        11.10299         2.46787
H         22.58213        10.42715         3.12227
O         26.54213        29.24264         1.26877
H         27.10062        29.89733         1.74909
O         20.52311        48.68426         1.87153
H         20.52935        47.72747         2.08510
O         26.15530        42.16518         2.24250
H         26.46894        41.29312         2.58455
O         21.71528        25.43167        -3.12042
H         20.96124        26.04767        -3.28375
O         29.63387        16.48747        -1.59206
H         28.81192        16.77522        -2.04619
O         27.02802        13.25829        -0.98402
H         27.92566        12.87633        -1.09468
O         20.90346         9.79990        -1.16585
H         21.63714        10.33768        -1.54316
H          5.08325        31.61550         2.14092
H          5.23559        33.85247         1.38244
H          7.48473        27.01169         1.69553
H          6.66380        29.34144         2.65678
H          6.16071        35.81199         0.16572
H          7.31357        37.96592         0.21448
H          9.95859        22.57391         1.32705
H          8.72053        24.72174         1.48912
H          8.75108        40.21003         0.63236
H          9.91607        42.27720         0.41095
H         12.40425        18.22143         1.29086
H         11.09800        20.47126         1.01567
H         11.13815        44.36348         0.60852
H         12.43051        46.54330         0.75742
H         14.82434        13.96013         0.94412
H         13.64691        16.07932         1.13265
H         13.66262        48.65451         0.86754
H         14.87022        50.80733         0.89090
H         17.39060         9.56902         0.89716
H         16.04440        11.74860         0.62177
H         16.11851        52.97562         0.96586
H         17.93781        54.79955         2.07839
H         19.95853         5.50218         1.54607
H         18.70220         7.53797         1.24047
H         18.61248        57.27232         0.75472
H         19.82174        59.36356         0.95437
H         23.27352         2.30991         2.77854
H         21.15456         3.46808         2.16378
H         23.43533        62.63648        -0.06024
H         21.28311        61.73617         0.54890
H         25.43867         3.55954         2.76430
H         26.40234         5.73985         1.14928
H         26.79369        59.30987         0.32682
H         25.44717        61.41296        -0.26646
H         27.93384         7.85213         2.35878
H         29.13364        10.07770         2.14637
H         29.12404        55.07514         1.33611
H         27.95093        57.16045         0.97610
H         30.34743        12.17374         1.57318
H         31.55410        14.28933         1.26715
H         31.58357        50.72772         1.78878
H         30.35234        52.94204         1.68508
H         32.81609        16.33058         0.64623
H         33.97876        18.38522        -0.00164
H         33.96225        46.53908         1.26751
H         32.73717        48.57238         1.50355
H         35.23105        20.47016        -0.16993
H         36.49814        22.57690        -0.22804
H         36.61089        42.22500         0.73671
H         35.34813        44.29527         1.26755
H         37.73529        24.64030        -0.09643
H         39.03823        26.77658         0.13999
H         39.07975        37.84551         0.79883
H         37.84982        40.03935         0.77492
H         40.27701        28.97903         0.26690
H         41.46409        31.08644         0.52147
H         41.49045        33.55145         0.61946
H         40.27242        35.70969         0.67755
