         429
 CSIRO Nanostructure Databank - Neutral Graphene Oxide Data Set
C          1.29617         3.46956         1.81590
C          0.09516         4.16056         1.88809
C          1.27311         6.30261         1.95731
C          0.07299         5.56048         1.94132
C          1.25709         7.77998         1.92785
C          0.06000         8.52900         1.99795
C          1.23447        10.62264         1.49744
C          0.05031         9.90035         1.78493
C          1.22851        12.04649         1.21075
C          0.03386        12.80322         1.18226
C          1.24733        14.86222         0.62979
C          0.04512        14.16064         0.91621
C          1.25997        16.28331         0.39463
C          0.05788        17.04351         0.42521
C          1.27786        19.10436        -0.03708
C          0.06681        18.40131         0.21928
C          1.27811        20.50319        -0.33838
C          0.06207        21.28361        -0.25766
C          1.11145        23.23875        -1.32288
C         -0.01867        22.57752        -0.65556
C          1.09432        24.71212        -1.54341
C         -0.00057        25.50119        -1.29224
C          1.23592        27.61491        -1.52338
C          0.05445        26.92503        -1.37610
C          1.27117        29.07942        -1.59727
C          0.11194        29.79555        -1.95924
C          1.33132        31.89969        -1.84954
C          0.15001        31.17664        -2.08697
C          1.29070        33.38308        -1.82034
C          0.24429        34.14825        -2.52065
C          1.55267        36.22476        -2.37407
C          0.34947        35.49056        -2.69978
C          1.64492        37.62586        -2.60969
C          3.76734         3.48740         1.67585
C          2.53074         4.17622         1.81918
C          3.79144         6.34666         2.09577
C          2.49616         5.59783         1.91775
C          3.69482         7.72505         1.48081
C          2.45285         8.49297         1.69371
C          3.71155        10.60946         1.33671
C          2.45923         9.89506         1.48381
C          3.66881        12.00311         1.04747
C          2.45947        12.71840         0.92608
C          3.68088        14.81928         0.29159
C          2.47280        14.13208         0.59626
C          3.71206        16.22293         0.10278
C          2.48831        16.96392         0.14514
C          3.73994        19.05887        -0.34126
C          2.50384        18.37903        -0.07381
C          3.74268        20.46706        -0.60523
C          2.49473        21.14162        -0.65815
C          3.72435        23.25810        -1.34450
C          2.45596        22.49824        -1.22299
C          3.57022        24.48580        -1.94633
C          2.35774        25.32087        -1.98438
C          3.72516        27.53568        -1.21447
C          2.49457        26.87294        -1.79531
C          3.66458        29.04105        -0.95798
C          2.47734        29.79384        -1.41027
C          3.79441        31.91754        -1.32472
C          2.52550        31.20652        -1.51561
C          3.84041        33.32315        -1.41020
C          2.59795        34.11017        -1.54771
C          3.92572        36.20438        -1.75614
C          2.69354        35.53071        -1.92593
C          3.99374        37.61779        -1.95051
C          2.82190        38.30637        -2.38272
C          6.20424         3.51167         1.19189
C          4.99853         4.18705         1.50949
C          6.22839         6.32393         1.44341
C          5.01646         5.60548         1.62745
C          6.25142         7.75354         1.55516
C          5.01941         8.49754         1.35027
C          6.20448        10.68157         1.73982
C          4.95105         9.94377         1.46800
C          6.14555        12.19084         1.49499
C          4.94628        12.64774         0.70404
C          6.22121        14.83856         0.25618
C          4.95216        14.08084         0.26323
C          6.20139        16.17187        -0.11551
C          4.95352        16.91538        -0.16510
C          6.20242        19.03226        -0.73492
C          4.95098        18.30129        -0.40017
C          6.22642        20.51179        -0.60261
C          4.98664        21.21684        -0.76078
C          6.25006        23.34129        -0.86508
C          5.00266        22.61225        -1.03809
C          6.34883        24.76597        -0.88777
C          5.35140        25.63043        -1.47597
C          6.03852        27.56125        -0.09553
C          5.04771        26.88231        -1.02658
C          6.07522        29.04752        -0.44207
C          4.96818        29.74865        -0.82839
C          6.24098        31.88417        -1.05691
C          5.01548        31.19254        -1.11020
C          6.27954        33.31680        -1.07840
C          5.06710        34.03570        -1.28692
C          6.29383        36.17837        -1.10151
C          5.10093        35.47245        -1.37430
C          6.34886        37.61659        -1.25255
C          5.21049        38.29948        -1.69912
C          8.60343         3.55144         0.55654
C          7.41405         4.21721         0.96992
C          8.61193         6.44639         0.68219
C          7.42414         5.63318         1.12203
C          8.80490         7.71903         1.48831
C          7.51329         8.44714         1.81326
C          8.78467        10.64605         1.34752
C          7.51779         9.95002         1.87505
C          8.63302        12.17054         1.44590
C          7.44176        12.79519         1.01974
C          8.71203        14.78258         0.37046
C          7.45731        14.13621         0.55520
C          8.75851        16.05944        -0.36698
C          7.46484        16.80624        -0.56046
C          8.78299        19.01883        -0.53231
C          7.50498        18.29113        -0.78617
C          8.72576        20.46971        -0.38485
C          7.44430        21.18271        -0.47308
C          8.62063        23.33088        -0.11109
C          7.44117        22.62886        -0.46012
C          8.64755        24.74226        -0.03446
C          7.45776        25.45925        -0.34017
C          8.56929        27.55573         0.16414
C          7.40169        26.87681        -0.16004
C          8.50119        29.03185         0.27086
C          7.44824        29.60618        -0.67593
C          8.74512        31.85861        -0.50448
C          7.50452        31.11695        -0.87655
C          8.75845        33.35393        -0.62941
C          7.47120        34.06817        -0.78778
C          8.59997        36.23305        -0.08380
C          7.46570        35.45782        -0.72598
C          8.71912        37.67170        -0.53563
C          7.57779        38.31323        -1.01818
C         10.98674         3.58493        -0.09725
C          9.81989         4.25642         0.33916
C         11.09956         6.37817         0.41476
C          9.88387         5.66961         0.53048
C         11.15604         7.82041         0.73555
C         10.06738         8.47260         1.28174
C         11.41693        10.58494         1.40185
C         10.11057         9.90498         1.82697
C         11.63890        11.90941         1.71458
C          9.72771        13.02263         1.62930
C         11.26435        14.63972         0.41239
C          9.87295        14.25527         0.96079
C         11.32768        16.13967         0.03185
C         10.04662        16.83338        -0.37783
C         11.25327        19.02497        -0.30302
C          9.96247        18.31793        -0.35227
C         11.19278        20.53958        -0.18300
C          9.88309        21.17563        -0.09474
C         11.11740        23.36423         0.28173
C          9.81981        22.58621         0.42534
C         11.09712        24.76782         0.36559
C          9.84319        25.47339         0.28768
C         11.03178        27.63278         0.61599
C          9.81332        26.87923         0.36808
C         11.02122        29.03880         0.70004
C          9.74242        29.78805         0.62797
C         11.16727        31.86659         0.12176
C          9.77571        31.30912         0.48206
C         11.17008        33.36478         0.28006
C         10.00355        34.08836        -0.25969
C         11.08677        36.22097         0.25034
C          9.93321        35.53723        -0.05287
C         11.11157        37.67474         0.12943
C          9.94030        38.34478        -0.31711
C         13.29689         3.63695        -0.94249
C         12.17971         4.29368        -0.32583
C         13.61038         6.34283        -0.02178
C         12.25612         5.68277         0.00090
C         13.54241         7.84985        -0.03586
C         12.41101         8.52071         0.47187
C         13.72150        10.62972         0.49442
C         12.50153         9.91546         0.74781
C         13.86946        12.01757         0.83492
C         12.72799        12.71806         1.30544
C         13.55156        15.02506         1.38385
C         12.48543        14.16202         1.20414
C         13.70173        16.35979         0.91805
C         12.49002        16.99124         0.43091
C         13.62208        19.13333         0.75784
C         12.45860        18.34183         0.21538
C         13.62482        20.58869         0.36724
C         12.41609        21.26630         0.23077
C         13.59155        23.42343         0.31201
C         12.36415        22.69014         0.26653
C         13.56243        24.84420         0.41134
C         12.31667        25.51852         0.45505
C         13.51295        27.65160         0.82510
C         12.28924        26.93734         0.63487
C         13.43823        29.04488         1.18837
C         12.24450        29.75642         0.89432
C         13.43486        31.88303         1.20536
C         12.27759        31.18267         0.87270
C         13.33290        33.35845         1.52583
C         12.23783        34.05928         0.76359
C         13.46777        36.18108         0.92204
C         12.28581        35.50401         0.64970
C         13.52018        37.61224         0.67128
C         12.33974        38.32115         0.30115
C         15.44791         3.72383        -2.14256
C         14.40994         4.35327        -1.39463
C         15.62496         6.47759        -1.51114
C         14.54141         5.75630        -1.06362
C         15.91007         7.83744        -0.91644
C         14.68916         8.57139        -0.41031
C         15.97571        10.69796        -0.60036
C         14.79549         9.95928        -0.17163
C         16.11212        12.07687        -0.26413
C         15.11101        12.68853         0.54119
C         16.30819        14.84692         0.40214
C         15.35579        13.99399         0.99521
C         16.24432        16.29726         0.56743
C         14.97902        17.01376         0.79768
C         16.12360        19.19414         0.42345
C         14.94980        18.42629         0.59637
C         16.09539        20.58853         0.24662
C         14.85668        21.30628         0.30700
C         16.05514        23.48019         0.15153
C         14.82819        22.72716         0.23637
C         16.00468        24.90082         0.21000
C         14.78977        25.59330         0.38439
C         15.99427        27.77391         0.35016
C         14.76174        27.02408         0.51082
C         16.02160        29.22091        -0.05663
C         14.55616        29.77917         1.70051
C         15.89931        31.90807         1.64417
C         14.62752        31.18664         1.56157
C         15.83015        33.34759         2.08077
C         14.64218        34.10757         1.58293
C         15.83249        36.28242         1.81493
C         14.65824        35.46525         1.38704
C         15.93527        37.64702         1.21115
C         14.74883        38.26824         0.71643
C         17.61868         3.81665        -3.33249
C         16.54810         4.44525        -2.60279
C         17.72357         6.59113        -2.83802
C         16.63671         5.85837        -2.33460
C         17.72850         8.06328        -2.74879
C         16.72747         8.71599        -1.83990
C         18.06306        10.84872        -1.92649
C         16.96001        10.10689        -1.40840
C         18.24626        12.21295        -1.52075
C         17.26130        12.82426        -0.65788
C         18.55472        14.97165        -0.59477
C         17.34060        14.20563        -0.31945
C         18.52988        16.42828        -0.39454
C         17.38702        17.03321         0.21517
C         18.63952        19.23972         0.10591
C         17.44669        18.48087         0.62183
C         18.63460        20.71819         0.40210
C         17.33928        21.32270        -0.21094
C         18.52139        23.54260         0.11943
C         17.29096        22.81043         0.01670
C         18.49806        24.92036         0.26165
C         17.25543        25.66316        -0.10727
C         18.46673        27.81873         0.42917
C         17.22286        27.11457         0.28347
C         18.41351        29.28376         0.83953
C         17.23705        30.12169         0.29739
C         18.36582        32.03863         1.52584
C         17.09468        31.35596         1.22834
C         18.36608        33.28966         2.22187
C         17.10010        34.07310         2.44655
C         18.29025        36.51899         2.54920
C         17.05826        35.61788         2.43195
C         18.32486        37.87975         1.83974
C         17.13257        38.31352         1.10679
C         18.70389         4.53130        -3.75863
C         19.87853         6.72058        -3.98349
C         18.78658         5.94929        -3.53555
C         19.96150         8.10432        -3.75377
C         18.92961         8.82070        -3.13985
C         20.04972        11.03219        -3.33826
C         19.01230        10.23072        -2.81685
C         20.20040        12.36544        -2.96728
C         19.33885        12.96672        -2.03542
C         20.46933        15.30051        -2.20684
C         19.61376        14.33476        -1.51895
C         20.53364        16.60432        -1.79636
C         19.61903        17.19045        -0.85331
C         20.88687        19.38239        -0.83133
C         19.68709        18.61754        -0.53222
C         20.96974        20.72235        -0.59485
C         19.84264        21.47357        -0.11432
C         20.94029        23.71624        -0.38867
C         19.80529        22.85682        -0.06685
C         20.92230        25.04057        -0.11912
C         19.75876        25.63182         0.65001
C         20.82049        27.85162         1.12335
C         19.65951        27.14090         0.62544
C         20.86281        29.19865         1.21717
C         19.74450        30.02933         0.61551
C         20.82112        32.04855         1.58495
C         19.61904        31.41603         1.24390
C         20.82200        33.18880         2.37841
C         19.59284        33.75003         2.72957
C         20.76724        36.74100         2.80950
C         19.61424        36.03003         2.96579
C         20.77843        37.95200         2.03149
C         19.63361        38.46231         1.50800
O         16.43305         8.62106        -3.25901
O          2.42949        26.26529        -3.10526
O         19.63030        34.81093         3.64943
O         11.00094        16.33842        -1.38552
O         14.64550        14.48902         2.09439
O         15.28318        29.60235        -0.96189
O          8.60272        31.33781        -1.85969
O          4.65443        25.10051        -2.56584
O          8.31763         7.73902         2.85083
O          8.08839        16.04744        -1.66064
O          6.81870        18.64539        -2.03079
O         19.77016        14.33924        -0.06292
O         16.21646        33.53687         3.49069
O         16.00710        36.16536         3.26893
O          1.61290        33.88613        -0.47558
O          8.69814        29.47425         1.64742
O         11.46170        19.87645        -1.47981
O          4.25983         7.91353         0.19037
O          9.71569        33.74005        -1.70209
O         10.71135        12.59224         2.50382
O          5.07726        12.94101        -0.71111
O          3.32660        28.09588         0.11614
O         18.02270        37.76040         3.27792
O          1.66145        22.51455        -2.47016
O          6.85579        10.44562         3.06723
O          9.42616        31.90457         1.74956
H          8.91982        31.23175         2.26352
O          9.59534        22.46280         1.88019
H          9.51090        23.37131         2.24124
O         15.47404        29.10110         2.43383
H         16.23740        29.66807         2.69069
O         12.86933        33.36864         2.92608
H         13.65962        33.31761         3.50722
O         17.45486        21.10367        -1.65038
H         16.70322        21.55662        -2.08748
O          3.95303         6.59283         3.53590
H          4.00713         5.72146         3.98225
O         10.04405         9.86726         3.26083
H         10.67955         9.20167         3.59374
O         20.09013        30.14406        -0.77834
H         19.31829        30.54621        -1.24364
O         13.39479        19.16525         2.22693
H         14.21208        19.51724         2.64109
O         16.74393         7.58409         0.25755
H         16.18433         7.08277         0.89548
O          8.19087        36.30452         1.33558
H          8.84992        36.86095         1.80373
O         18.58652        20.94137         1.83340
H         18.15390        20.15000         2.24510
O          5.92689        12.81447         2.79645
H          6.43623        12.27931         3.45132
O          8.27672         6.94381        -0.66780
H          8.21403         6.16769        -1.26421
O         17.56114        30.71434        -0.98617
H         16.71215        30.72704        -1.49605
O          7.79281        28.98785        -1.95918
H          8.35718        29.63439        -2.44831
O         17.60378        18.44266         2.10862
H         18.33592        17.81883         2.30615
O         11.41545        31.58252        -1.27939
H         10.86105        32.20822        -1.81118
O         14.25986         6.02414         1.27512
H         14.23128         5.04778         1.37489
O          5.62093        27.41508         1.28758
H          4.68184        27.72230         1.32752
O         20.01101        25.31668         2.06884
H         20.05456        24.33852         2.14396
O         18.18980        29.25114         2.28287
H         18.89851        28.70022         2.68210
O         17.28349        25.71890        -1.60430
H         16.44617        26.14459        -1.89095
O          8.78425        10.39709        -0.08297
H          8.14951        10.99829        -0.52779
O         11.33130        13.88528        -0.82250
H         11.01231        14.48471        -1.54209
H          1.30348         2.37286         1.74054
H         -0.85466         3.60753         1.88302
H         -0.89765         6.07333         1.96757
H         -0.89473         8.02404         2.19831
H         -0.91350        10.42536         1.83134
H         -0.93026        12.31879         1.38768
H         -0.91309        14.69587         0.92975
H         -0.90429        16.54859         0.60859
H         -0.88905        18.94006         0.23652
H         -0.82435        20.82943         0.20513
H         -0.94166        23.14352        -0.46876
H         -0.95181        25.04689        -0.98360
H         -0.88073        27.47598        -1.20585
H         -0.83091        29.26551        -2.14719
H         -0.77396        31.71062        -2.34624
H         -0.63886        33.61922        -2.90622
H         -0.46994        36.04026        -3.18671
H          0.75381        38.16584        -2.96132
H          3.76051         2.39094         1.59639
H          2.87174        39.39330        -2.54130
H          6.19287         2.41743         1.07832
H          5.25557        39.38874        -1.84776
H          8.58303         2.46306         0.40266
H          7.61690        39.39165        -1.23741
H         10.94553         2.50678        -0.31012
H         10.00284        39.41977        -0.54678
H         13.21341         2.56492        -1.17407
H         12.41063        39.40649         0.13424
H         15.37466         2.64601        -2.35137
H         14.80823        39.32254         0.40715
H         17.55416         2.73668        -3.53118
H         17.16671        39.28168         0.58419
H         19.52099         4.03294        -4.30038
H         20.70845         6.21717        -4.50021
H         20.87827         8.62324        -4.06744
H         20.76701        10.60302        -4.05074
H         21.03819        12.94039        -3.38580
H         21.05927        14.97936        -3.07716
H         21.23681        17.27158        -2.31460
H         21.76418        18.85676        -1.23191
H         21.90298        21.25062        -0.83764
H         21.82902        23.26898        -0.85767
H         21.78815        25.67493        -0.35922
H         21.66822        27.24717         1.47797
H         21.76868        29.68252         1.60880
H         21.77914        31.60793         1.28036
H         21.75528        33.63157         2.74775
H         21.70882        36.34492         3.21030
H         21.74593        38.42552         1.81451
H         19.66009        39.32409         0.82608
