         671
 CSIRO Nanostructure Databank - Neutral Graphene Oxide Data Set
C          5.89952        31.65207         0.97712
C          5.91580        32.97830         0.72655
C          8.39741        27.27462         1.03038
C          8.34683        28.70570         1.09907
C          7.15493        29.43640         1.04410
C          8.37819        31.60218         0.71880
C          7.16765        30.91516         1.31786
C          8.40333        32.97058         0.54041
C          7.16004        33.73355         0.60728
C          8.38557        35.84388         0.25088
C          7.16544        35.10324         0.49451
C          8.38929        37.21544         0.09767
C         10.97028        23.15389         0.18084
C         10.88820        24.53104         0.46405
C          9.67620        25.17703         0.74663
C         10.85468        27.30412         1.17543
C          9.62275        26.58465         0.98683
C         10.83426        28.73858         1.28758
C          9.59598        29.41651         1.13658
C         10.93958        31.51342         0.54389
C          9.61441        30.81462         0.68546
C         10.99043        32.99307         0.16619
C          9.64030        33.69772         0.31339
C         10.90667        35.77639         0.05486
C          9.61414        35.06093         0.16009
C         10.88668        37.25276        -0.17914
C          9.56300        37.93638        -0.54226
C         10.75975        40.17201        -0.28502
C          9.60865        39.44901        -0.43591
C         10.84359        41.59375        -0.56614
C         13.42628        18.86855         0.10416
C         13.44207        20.25896         0.10330
C         12.18173        21.01118        -0.27662
C         13.42431        23.14784         0.19509
C         12.20864        22.48303         0.05111
C         13.46982        24.61460         0.29315
C         12.12814        25.33207         0.41778
C         13.32205        27.33520         1.30540
C         12.11614        26.67511         1.01528
C         13.24976        28.69236         1.96453
C         12.04406        29.44007         1.45376
C         13.24386        31.69439         1.75742
C         12.03747        30.90058         1.36053
C         13.33542        33.10729         1.31133
C         12.12195        33.76498         0.83061
C         13.18917        35.96980         1.23373
C         12.07366        35.12116         0.70549
C         13.18769        37.37482         0.67422
C         12.05815        38.03121         0.28306
C         13.24908        40.25656         0.05300
C         11.96713        39.54442         0.36866
C         13.29885        41.57590        -0.33910
C         12.04643        42.29057        -0.61694
C         13.33283        44.34109        -1.19100
C         12.12909        43.69029        -0.95338
C         13.40853        45.75208        -1.42732
C         15.73751        14.56580        -0.03822
C         15.74395        15.90093         0.39225
C         14.57414        16.70165         0.29267
C         15.79657        18.81470         0.72734
C         14.60065        18.12079         0.38873
C         15.84076        20.23055         0.70620
C         14.65864        20.94191         0.34735
C         15.95557        23.15048         0.64349
C         14.69535        22.40784         0.21406
C         15.85818        24.58191         1.02427
C         14.66596        25.29693         0.83737
C         15.77077        27.35044         1.66531
C         14.58505        26.67060         1.22671
C         15.73533        28.79545         1.93024
C         14.53967        29.47602         1.90510
C         15.78237        31.67161         1.99434
C         14.48124        30.95077         2.28928
C         15.77900        33.11890         1.77198
C         14.52463        33.81560         1.44622
C         15.70150        35.97610         1.24980
C         14.52721        35.25425         1.21880
C         15.75320        37.39773         0.94073
C         14.48591        38.05589         0.53247
C         15.76082        40.27435         0.48783
C         14.50483        39.50075         0.17099
C         15.78142        41.61965        -0.19297
C         14.57752        42.21890        -0.57012
C         15.80434        44.39884        -0.72195
C         14.62273        43.54486        -1.27050
C         15.88265        45.66844        -1.56124
C         14.61526        46.44224        -1.61228
C         15.93913        48.51411        -1.96264
C         14.70802        47.82830        -1.89455
C         15.99328        49.93314        -2.17297
C         18.25861        10.48876        -1.42833
C         18.22713        11.77162        -0.79389
C         17.02815        12.42390        -0.56462
C         18.25913        14.49465         0.41401
C         16.90992        13.72403         0.10492
C         18.20263        15.95251         0.49912
C         16.99702        16.58123         0.67560
C         18.24145        18.74358         1.18570
C         16.94277        17.97856         1.25238
C         18.15688        20.14060         1.76019
C         17.03711        20.95894         1.11514
C         18.22767        23.09007         1.66829
C         17.07505        22.34613         1.19009
C         18.23270        24.48202         1.71961
C         17.00994        25.23843         1.53404
C         18.16860        27.30291         2.42215
C         16.96453        26.62847         1.81192
C         18.20134        28.79822         2.15797
C         17.00591        29.51091         2.11059
C         18.25010        31.70222         2.28607
C         16.96599        30.97066         2.12975
C         18.25884        33.23877         2.28651
C         16.95773        33.83184         1.79696
C         18.26465        36.00110         1.40186
C         16.95499        35.29315         1.63072
C         18.22099        37.33423         0.74899
C         16.93717        38.06788         0.75059
C         18.24604        40.22239         0.32465
C         16.97380        39.43770         0.09825
C         18.27780        41.54293        -0.01463
C         17.04985        42.26163        -0.30276
C         18.32057        44.31421        -0.62480
C         17.12159        43.63859        -0.67507
C         18.51399        45.62767        -1.32120
C         17.20679        46.35902        -1.66224
C         18.36896        48.55590        -1.58257
C         17.19115        47.83694        -1.73687
C         18.41590        49.97381        -1.82159
C         17.17748        50.64051        -2.13366
C         18.51387        52.78971        -2.46839
C         17.15575        52.14761        -2.26890
C         18.58112        54.11245        -2.83606
C         20.65358         6.60449        -3.33241
C         20.66743         7.87059        -2.67993
C         19.48428         8.52611        -2.31157
C         20.71422        10.52915        -1.53864
C         19.45839         9.83638        -1.74140
C         20.75922        11.84501        -1.08920
C         19.53290        12.40847        -0.46365
C         20.71554        14.68726        -0.22523
C         19.54723        13.82548         0.06227
C         20.72040        16.03738         0.06691
C         19.41178        16.78682         0.15262
C         20.68698        18.81106         0.88770
C         19.45373        18.13487         0.84149
C         20.69111        20.30683         0.97998
C         19.50218        20.87971         1.74741
C         20.77581        23.10928         1.68807
C         19.50293        22.36381         1.84486
C         20.74226        24.49284         1.86486
C         19.47950        25.21699         1.93651
C         20.74206        27.33232         2.45920
C         19.46920        26.58171         2.12366
C         20.68986        28.78262         2.03119
C         19.49003        29.44993         2.02738
C         20.71268        31.63773         1.49729
C         19.51633        30.93749         2.09482
C         20.72104        33.13055         1.67594
C         19.52514        33.85293         1.67962
C         20.72750        35.93645         1.10147
C         19.55769        35.26986         1.38469
C         20.85003        37.38105         0.65720
C         19.50121        38.07069         0.56041
C         20.74362        40.26672         0.81339
C         19.43230        39.53728         0.92235
C         20.78169        41.59615         0.49680
C         19.61093        42.24570        -0.20830
C         20.80613        44.44974        -0.00102
C         19.48410        43.72172         0.13475
C         20.81424        45.80310        -0.26626
C         19.49228        46.50527        -0.53853
C         20.90229        48.55357        -1.16075
C         19.62372        47.81078        -1.29566
C         20.85851        50.06628        -1.17521
C         19.63972        50.67639        -1.81571
C         20.97815        52.69448        -2.36667
C         19.72687        52.05220        -2.20794
C         21.05459        54.05788        -2.74475
C         19.83534        54.79499        -2.97138
C         21.13125        56.81910        -3.46786
C         19.88972        56.14502        -3.32233
C         21.18239        58.18827        -3.80046
C         23.02451         4.14920        -4.86261
C         21.82780         4.73996        -4.41355
C         23.16673         6.47058        -3.18740
C         21.83601         5.95038        -3.69586
C         23.14797         7.94867        -2.88595
C         21.95519         8.51889        -2.47209
C         23.26489        10.64384        -1.84906
C         21.96290         9.81552        -1.79549
C         23.15201        12.10200        -1.68732
C         21.95296        12.63634        -1.19340
C         23.03498        14.98380        -1.22330
C         21.83223        14.10126        -0.97880
C         23.11147        16.25350        -0.47450
C         21.95558        16.78904         0.06880
C         23.20419        18.92848         0.56958
C         21.99851        18.06801         0.88791
C         23.22809        20.27046         0.83202
C         22.01752        20.87314         1.51975
C         23.22254        23.06162         1.47742
C         22.00404        22.38591         1.52285
C         23.24594        24.45746         1.95649
C         21.98250        25.23495         1.95403
C         23.33083        27.32700         1.85098
C         22.01112        26.59654         2.08090
C         23.20911        28.81159         2.26305
C         21.98647        29.46475         1.60580
C         23.20167        31.65768         1.81438
C         22.01190        30.96149         1.81192
C         23.19667        33.10684         1.67962
C         21.96995        33.79040         1.55008
C         23.12704        35.98315         1.82898
C         22.03843        35.21358         1.09153
C         23.10134        37.48204         1.90247
C         21.90500        38.19232         1.39742
C         23.07336        40.37044         1.82973
C         21.90703        39.55341         1.32279
C         23.16890        41.72941         1.15483
C         22.01215        42.36389         0.65816
C         23.20634        44.52016         0.62747
C         22.01802        43.76381         0.37404
C         23.20298        45.94427         0.44983
C         22.02563        46.57724        -0.08513
C         23.15171        48.81024        -0.07868
C         22.02108        47.93784        -0.42436
C         23.36609        49.99321        -0.98259
C         22.18942        50.56905        -1.69711
C         23.50044        52.69343        -2.04475
C         22.26448        51.89932        -2.41889
C         23.54338        54.03160        -2.53872
C         22.31714        54.70695        -2.90651
C         23.59735        56.76357        -3.43146
C         22.35891        56.08753        -3.27794
C         23.63511        58.13509        -3.72503
C         22.41043        58.86375        -3.91816
C         23.69741        60.89884        -4.33783
C         22.47503        60.25208        -4.23809
C         24.25155         4.77791        -4.69558
C         25.51964         6.75709        -3.99367
C         24.35297         6.02186        -4.00521
C         25.58088         8.11501        -3.50623
C         24.36208         8.72943        -2.98100
C         25.48550        10.95627        -2.97182
C         24.36515        10.07471        -2.62450
C         25.52772        12.32328        -2.40097
C         24.32224        12.89431        -1.96204
C         25.61090        15.03607        -1.50085
C         24.28856        14.34351        -1.73209
C         25.58257        16.24672        -0.66226
C         24.41859        16.84506        -0.25182
C         25.55683        19.04138        -0.26123
C         24.51776        18.17856         0.46811
C         25.67722        20.42334         0.34781
C         24.45932        21.05723         0.74463
C         25.68468        23.19844         1.09890
C         24.45306        22.41999         1.13223
C         25.75715        24.47282         1.59918
C         24.56233        25.12848         2.18477
C         25.80963        27.35545         1.95519
C         24.58003        26.63752         2.49013
C         25.76401        28.84508         2.09527
C         24.49328        29.57729         1.98735
C         25.70640        31.72836         1.71123
C         24.48189        30.95504         1.86993
C         25.67436        33.14711         1.57522
C         24.41794        33.84163         1.61665
C         25.58595        36.01657         1.63756
C         24.43004        35.27635         1.72039
C         25.64107        37.41842         2.20570
C         24.38155        38.23747         1.95288
C         25.62208        40.38786         1.94121
C         24.39171        39.60752         1.85280
C         25.61587        41.76188         1.69977
C         24.37909        42.45802         1.30324
C         25.52302        44.66015         1.63278
C         24.37810        43.84917         1.08000
C         25.56422        46.10018         1.16799
C         24.39622        46.71405         0.75468
C         25.61722        48.98950         0.58779
C         24.34348        48.19460         0.59019
C         25.69107        50.25794        -0.19587
C         24.62099        50.77021        -0.87984
C         25.88620        52.82414        -1.48618
C         24.63957        52.10388        -1.48037
C         25.95655        54.10015        -2.13847
C         24.78752        54.70399        -2.62406
C         26.11319        56.78331        -3.16521
C         24.87628        55.96413        -3.44614
C         26.10151        58.15271        -3.47749
C         24.89969        58.83675        -3.80298
C         24.90027        60.20990        -4.11094
C         26.76720         8.82319        -3.54176
C         28.02603        11.04171        -3.15175
C         26.78886        10.28177        -3.39011
C         28.01334        12.33616        -2.72211
C         26.78446        13.01995        -2.32957
C         28.10628        14.92844        -1.39581
C         26.86140        14.28610        -1.70795
C         28.13734        16.17628        -0.75623
C         26.89481        16.80234        -0.16625
C         28.12243        18.96936         0.19648
C         26.92142        18.32116        -0.49699
C         28.11823        20.47011         0.02058
C         26.88728        21.12773         0.27590
C         28.16840        23.28768         0.53922
C         26.83404        22.63580         0.28834
C         28.22055        24.59903         0.97587
C         27.06904        25.21294         1.73832
C         28.11907        27.45611         0.95439
C         26.93251        26.71325         1.55195
C         28.19445        28.88885         1.35929
C         27.02036        29.61420         1.81170
C         28.13299        31.80684         1.34320
C         26.95545        31.08025         1.60470
C         28.11351        33.21800         1.21658
C         26.87156        33.87887         1.34117
C         28.09109        36.15728         1.06948
C         26.80695        35.34373         1.19456
C         28.07980        37.59075         1.51911
C         26.91629        38.20049         1.91317
C         28.15063        40.41470         2.33248
C         26.85173        39.62969         2.46206
C         28.12228        41.86268         1.96540
C         26.84238        42.55850         1.69316
C         28.09581        44.70875         1.56032
C         26.84898        43.93178         1.54706
C         28.08829        46.09556         1.48585
C         26.78783        46.88003         1.64747
C         28.16450        48.92256         0.62686
C         26.87075        48.32671         1.08623
C         28.18445        50.22063         0.06457
C         26.94109        51.08456         0.01415
C         28.31917        52.85504        -1.16394
C         27.04566        52.24269        -0.94616
C         28.38134        54.14469        -1.77567
C         27.22922        54.79039        -2.22032
C         27.25906        56.13952        -2.69523
C         29.31429        13.11801        -2.75501
C         30.54827        14.90498        -1.54116
C         29.35961        14.32836        -1.84772
C         30.64595        16.10177        -0.62580
C         29.36084        16.88880        -0.55828
C         30.58016        19.02292        -0.42327
C         29.38608        18.25842        -0.25449
C         30.53884        20.42898        -0.40121
C         29.33041        21.16859        -0.14023
C         30.58097        23.29428         0.13700
C         29.36080        22.60619         0.10911
C         30.65707        24.65989         0.55678
C         29.44935        25.34241         0.91434
C         30.66637        27.47593         0.96754
C         29.45221        26.74537         1.06894
C         30.70027        28.90570         1.03568
C         29.47888        29.62767         1.54237
C         30.67029        31.80808         1.18386
C         29.36777        31.04403         0.93296
C         30.59109        33.29143         0.90660
C         29.35512        33.99102         1.03069
C         30.61260        36.19168         0.82376
C         29.34619        35.39741         1.05266
C         30.56172        37.57350         1.45675
C         29.38624        38.24788         1.64620
C         30.65165        40.41335         1.87775
C         29.45308        39.59972         2.36834
C         30.61948        41.82455         1.69060
C         29.38679        42.57287         1.67497
C         30.63339        44.67905         1.69718
C         29.35208        43.95874         1.61686
C         30.65010        46.18531         1.66790
C         29.33274        46.96598         1.69385
C         30.60166        48.80816         0.46081
C         29.35736        48.20708         0.82136
C         30.61818        50.09764        -0.10406
C         29.42888        50.82443        -0.28737
C         29.48400        52.15330        -0.81127
C         31.85023        16.95338        -0.88355
C         33.04726        19.07183        -0.87727
C         31.83590        18.32971        -0.74366
C         33.07874        20.48505        -0.83904
C         31.76188        21.17864        -0.74337
C         33.10617        23.26708        -0.22847
C         31.76880        22.65406        -0.45796
C         33.14405        24.67047         0.27166
C         31.87837        25.38013         0.52757
C         33.12363        27.51484         0.55855
C         31.89674        26.77740         0.71866
C         33.09249        28.91649         0.53244
C         31.87217        29.61023         0.75896
C         33.12752        31.84481         0.69981
C         31.83535        31.10158         0.46008
C         33.08083        33.23501         0.85431
C         31.84040        33.98930         0.95006
C         33.10321        36.06815         1.48612
C         31.85465        35.38773         1.11495
C         33.12169        37.54107         1.49586
C         31.85417        38.22403         1.94816
C         33.06709        40.39894         1.38125
C         31.84932        39.71382         1.69129
C         33.08248        41.81012         1.40458
C         31.86411        42.52834         1.50834
C         33.11694        44.66912         1.31975
C         31.87892        43.94487         1.46325
C         33.07851        46.08528         1.11583
C         31.88812        46.81791         1.14491
C         31.83664        48.12266         0.64380
C         34.26428        21.20639        -0.92592
C         35.56854        23.40201        -0.66269
C         34.27444        22.71490        -1.03304
C         35.61385        24.71805        -0.24564
C         34.38332        25.43894         0.08760
C         35.64093        27.52065         0.39849
C         34.36210        26.79169         0.30086
C         35.60653        29.01271         0.39816
C         34.30047        29.70212         0.06377
C         35.58635        31.84667         0.43070
C         34.33873        31.15373         0.48228
C         35.60615        33.24386         0.54585
C         34.31856        34.02154         0.53313
C         35.67003        36.07729         1.10947
C         34.40184        35.31287         1.31628
C         35.58111        37.56308         0.98486
C         34.27190        38.24784         1.18195
C         35.47999        40.36916         0.69017
C         34.27802        39.67466         1.10185
C         35.46378        41.87497         0.58175
C         34.41574        42.50985         1.50289
C         34.32702        43.98563         1.27745
C         36.85509        25.45729        -0.21445
C         38.08206        27.60324        -0.08761
C         36.89851        26.82425         0.04354
C         38.08544        29.01486        -0.03634
C         36.86161        29.74547         0.14224
C         38.05671        31.87785         0.03997
C         36.83710        31.13721         0.19647
C         38.05250        33.28088         0.12057
C         36.82472        33.98006         0.40114
C         38.02258        36.14457         0.24229
C         36.83177        35.37888         0.52100
C         37.95057        37.53444         0.16202
C         36.61237        38.22348         0.09497
C         36.61238        39.71032         0.29896
C         39.28874        29.76773        -0.20977
C         40.49848        31.93202        -0.34130
C         39.28750        31.16000        -0.17844
C         40.49042        33.29442        -0.28090
C         39.27053        34.03350        -0.04224
C         39.24562        35.42277         0.00818
O         21.99086        14.88559        -2.23669
O         30.81676        45.51035         2.94961
O         24.88415        15.16903        -2.78452
O         31.55123        22.17308        -1.82875
O         17.52538        13.81092         1.43631
O         28.17681        41.42959         3.38483
O         12.10514        31.58157         2.70961
O         23.01324        49.56631        -2.36101
O         14.61081        38.50595        -0.89484
O         29.62812        39.26627         3.74410
O         15.68185        22.89374        -0.77316
O         25.88808        10.92887        -4.37938
O         11.27428        36.31833        -1.26955
O         26.11764        49.22554         1.97300
O         26.61291        29.26819         3.24155
O         23.33138        48.92844         1.37131
O         19.07245        31.27821         3.45311
O         16.59085        45.67443        -2.82813
O         23.91983        24.43004         3.31197
O         19.72623        21.47280         3.06893
O         33.36386        23.48955         1.17868
O         19.81383        12.69290         0.95586
O         12.84716        25.28524        -0.85804
O         27.26431        35.87467        -0.11660
O         22.81116        36.61121         3.08263
O         20.63888        31.46632         0.06485
O         20.56895        47.84840        -2.40675
O         18.81901        37.52220        -0.61603
O         36.08163        36.96344         2.20929
O         33.81633        35.35478         2.61471
O         10.44187        30.76607        -0.59192
O         17.64625        36.03771         2.71701
O         35.66438        28.29657         1.66769
O         22.89978         9.87482        -0.66509
O         15.58233        44.78378         0.58656
O         36.11075        38.01704        -1.27760
H         36.66777        38.54816        -1.88504
O         22.22253        17.65739         2.29951
H         22.15316        18.49808         2.82603
O         23.62124        27.23418         0.43492
H         23.00427        27.85490        -0.03597
O         19.19228        17.14184        -1.26880
H         18.45864        17.79238        -1.30807
O         22.44139        51.60288        -3.84055
H         22.91478        50.73892        -3.88808
O         24.94820        19.28687        -1.55662
H         25.66180        19.61231        -2.15167
O         11.02581        20.43373         0.33006
H         10.98571        19.48379         0.10214
O         22.15353        20.42073         2.90512
H         21.44005        20.87219         3.42190
O         29.17083        30.82687        -0.49966
H         28.79431        31.64633        -0.88572
O         22.76987        40.68453         3.22502
H         23.55339        41.13209         3.61085
O         30.65106        36.46098        -0.63595
H         30.60861        35.59692        -1.09894
O         15.81897        40.49258         1.91771
H         15.34182        41.32011         2.13610
O         18.33212        33.66552         3.67605
H         18.83837        32.96881         4.15895
O         16.25080        52.55195        -3.30382
H         16.58423        52.20118        -4.15493
O         29.21632        47.50669         3.03947
H         29.50288        46.79084         3.65329
O         24.59331        26.78962         3.92214
H         24.15940        25.98013         4.29078
O         27.44899        25.04921         3.14677
H         26.78137        25.51586         3.69626
O         31.89135        38.02720         3.38847
H         31.05837        38.47619         3.76357
O         25.66063        37.12553         3.63681
H         25.86945        37.98207         4.09944
O         11.32796        33.04747        -1.24563
H         10.84363        32.31023        -1.68425
O         13.02486        28.43831         3.40683
H         13.46242        29.17374         3.89912
O         27.99520        18.77498         1.63023
H         28.81207        19.10709         2.05679
O         18.00441        27.18493         3.87687
H         18.83723        27.53844         4.27701
O         14.93521        43.30865        -2.66666
H         14.26002        42.70185        -3.03550
O         19.17293        45.31525        -2.56879
H         18.47480        45.00391        -3.18901
O         34.14881        34.47744        -0.86351
H         34.09056        33.67776        -1.42946
O         20.81922        50.49697         0.22383
H         19.89926        50.41764         0.55288
O         26.51330        23.00431        -1.10445
H         25.68804        22.53396        -1.35049
O         26.67014        39.50134         3.90855
H         27.58552        39.47257         4.28968
O         18.87625        46.78801         0.74704
H         19.54850        47.19408         1.33406
O         31.69005        31.19065        -0.99450
H         30.80690        30.79532        -1.21205
O         16.93453        39.27060        -1.34215
H         17.57952        38.55890        -1.56767
O         20.50874        20.82077        -0.37877
H         21.10309        20.32117        -0.97857
O          9.31564        37.73632        -1.96989
H          9.91267        36.99660        -2.24935
O         29.62673        29.67419         2.98716
H         28.79118        30.00041         3.38651
O         24.91154        17.98073         1.85030
H         24.10477        17.64995         2.32392
O         30.82794        15.55155         0.74060
H         29.94327        15.26376         1.05485
O         35.18142        42.20959        -0.78245
H         34.99330        43.17133        -0.82232
O         14.36403        30.95473         3.75287
H         13.46099        31.29037         3.96783
O          7.33622        31.04503         2.78451
H          7.26043        31.99841         3.00367
O         30.43493        12.26284        -2.51500
H         30.44206        12.02199        -1.56623
O         30.93182        31.74078         2.60608
H         31.74559        32.25423         2.79658
O         34.20539        29.73180        -1.39868
H         33.36240        30.20565        -1.60690
O         20.75017        27.37457         3.94554
H         20.94080        26.46574         4.26331
O         11.76846        39.78867         1.81520
H         11.56344        40.74185         1.92703
O         22.98635        28.91206         3.68006
H         23.69622        28.39741         4.13615
O         27.22347        18.40570        -1.91011
H         26.65200        17.76525        -2.38679
O         34.91670        42.28478         2.86039
H         34.25740        42.64704         3.48945
O         16.61706        17.70141         2.65669
H         16.85437        18.50780         3.17845
O         22.52574        35.12386        -0.28723
H         21.96376        34.47321        -0.75993
O         17.73252        20.02193         3.15507
H         18.27367        20.67177         3.67072
O         19.14422        39.48736         2.36103
H         19.21019        40.39686         2.72355
O         12.90681        36.18177         2.66793
H         13.07388        35.33458         3.13407
O         19.90363        42.18606        -1.62973
H         19.95178        41.24530        -1.89934
O         21.37051        37.37900        -0.70700
H         20.65792        37.02065        -1.28255
O         25.03625        55.50525        -4.83969
H         24.26069        54.94288        -5.05255
O         19.12262        43.80467         1.54190
H         18.72469        44.69161         1.69398
O         26.82180        51.72736         1.33072
H         26.63218        51.00193         1.97612
O         26.60896        47.00754         3.09173
H         26.18290        47.88572         3.24674
O         34.04255        23.04306        -2.44017
H         33.14894        22.68313        -2.66883
O         25.21519        44.73218         3.07152
H         25.76991        45.46642         3.44411
O         27.85410        27.47119        -0.50992
H         26.93657        27.79048        -0.64893
O         23.35826         5.81959        -1.87870
H         22.65386         6.15032        -1.28109
O         22.05450        29.29912         0.15780
H         21.47728        30.05428        -0.20565
O         27.00745        16.48616         1.23571
H         26.35947        17.04414         1.74044
H          4.94299        31.11367         1.05496
H          4.97264        33.52471         0.57211
H          7.45704        26.71455         0.92111
H          6.19162        28.91095         0.96669
H          6.21548        35.65745         0.53622
H          7.43157        37.75528         0.16854
H         10.04771        22.55872         0.13020
H          8.73876        24.60159         0.71787
H          8.70811        39.96594        -0.80698
H          9.91792        42.11277        -0.86103
H         12.50414        18.32172        -0.14551
H         12.07457        20.92571        -1.40618
H         11.18980        44.26470        -0.99912
H         12.46554        46.32308        -1.44378
H         14.84493        14.16000        -0.53793
H         13.62170        16.21521         0.03191
H         13.78022        48.40738        -2.02506
H         15.05574        50.47619        -2.36552
H         17.30262         9.98662        -1.63949
H         16.09976        11.96056        -0.93387
H         16.72902        52.56164        -1.30955
H         17.65126        54.66647        -3.03261
H         19.68456         6.15509        -3.59984
H         18.52427         8.01769        -2.48794
H         18.95549        56.70254        -3.48553
H         20.24333        58.73879        -3.95982
H         22.97396         3.20508        -5.42324
H         20.86483         4.27351        -4.67002
H         23.72894        61.96958        -4.58388
H         21.53986        60.80614        -4.40324
H         25.15202         4.35537        -5.16575
H         26.41549         6.35092        -4.48956
H         27.03599        58.72999        -3.39862
H         25.85717        60.74821        -4.16968
H         27.70479         8.30542        -3.79596
H         28.99338        10.56487        -3.37472
H         29.35812        54.64155        -1.87134
H         28.20017        56.70520        -2.61187
H         29.42786        13.49195        -3.81252
H         31.48192        14.43370        -1.88536
H         31.58214        50.55750        -0.36631
H         30.46847        52.60007        -1.01307
H         32.80107        16.44578        -1.10792
H         33.98798        18.51996        -1.02226
H         34.00731        46.59486         0.82000
H         32.76482        48.60440         0.30369
H         35.21280        20.65637        -1.02796
H         36.50912        22.89374        -0.92705
H         36.47687        42.28281         0.86447
H         35.26509        44.55766         1.21341
H         37.78110        24.93214        -0.49538
H         39.03072        27.08303        -0.29165
H         38.85731        38.11172        -0.07742
H         37.48439        40.29110        -0.04264
H         40.23668        29.22936        -0.36071
H         41.44137        31.39283        -0.51563
H         41.42608        33.85869        -0.40817
H         40.17320        35.99152        -0.15564
