         269
 CSIRO Nanostructure Databank - Neutral Graphene Oxide Data Set
C        -11.27911         0.84905        -0.91170
C        -10.02412         1.66070        -0.91918
C         -8.72787         0.88502        -0.86148
C         -7.53920         1.57691        -0.35300
C         -6.38579         0.74611         0.00980
C         -5.11669         1.46373         0.42319
C         -3.80892         0.75558         0.19895
C         -2.74671         1.61769        -0.45931
C         -1.43387         0.87162        -0.74472
C         -0.12735         1.57104        -0.60697
C          1.16182         0.80309        -0.56380
C          2.38032         1.62138        -0.92792
C          3.60619         0.89215        -1.39369
C          4.94529         1.62124        -1.35129
C          6.22061         0.81540        -1.23764
C          7.53908         1.54998        -1.09966
C          8.66208         0.78024        -0.47410
C          9.93143         1.51734        -0.06822
C         11.15055         0.72246         0.16308
C         -9.95702         3.07762        -0.51909
C         -8.76230         3.71736        -0.30898
C         -7.52087         2.95722        -0.18272
C         -6.28115         3.63353         0.19829
C         -5.11257         2.93837         0.39897
C         -3.82001         3.59754         0.86677
C         -2.55523         2.82756         0.45753
C         -1.26710         3.57799         0.50346
C         -0.09482         3.03508        -0.25112
C          1.19529         3.77268        -0.20876
C          2.52280         2.98740        -0.23007
C          3.62698         3.87645        -0.88747
C          4.96960         3.09874        -1.01928
C          6.25935         3.66045        -0.47496
C          7.53017         3.00154        -0.82556
C          8.73105         3.66007        -0.46618
C          9.93472         2.94561        -0.30331
C         -8.77890         5.22056        -0.02632
C         -7.43729         5.90875        -0.22118
C         -6.26262         5.12175         0.25562
C         -4.93514         5.79575         0.29815
C         -3.64087         5.00990         0.28186
C         -2.52767         5.79842         1.04336
C         -1.21700         4.99337         1.05001
C          0.05990         5.79126         1.07666
C          1.18824         5.22841         0.24157
C          2.44718         5.98710         0.03609
C          3.71518         5.17883        -0.09150
C          5.01121         5.83351         0.25878
C          6.31184         5.08893         0.05844
C          7.58471         5.82872        -0.09046
C          8.72460         5.11242        -0.30144
C         -7.32213         7.20576        -0.60928
C         -5.99769         7.87636        -0.80507
C         -4.79524         7.12982        -0.35231
C         -3.50638         7.86501        -0.11757
C         -2.29814         7.16683         0.39249
C         -1.21227         8.07938         0.95970
C          0.04010         7.33878         1.48305
C          1.37106         8.06320         1.12086
C          2.58173         7.35067         0.62814
C          3.77053         8.08033        -0.00691
C          5.05632         7.32813         0.43506
C          6.33954         8.07239         0.28550
C          7.65097         7.35617        -0.02765
C         -5.78909         9.34425        -1.03375
C         -4.67184         9.99339        -0.64306
C         -3.70583         9.30881         0.30929
C         -2.33779         9.87591         0.75474
C         -1.02561         9.35610         0.16820
C          0.13143        10.06570         0.20116
C          1.33541         9.58571         1.01961
C          2.66241        10.21793         0.65010
C          3.79630         9.55575         0.31551
C          5.07732        10.21095         0.05359
C          6.24178         9.52542        -0.03220
C        -11.29273        -0.48570        -0.72934
C        -10.05830        -1.24118        -0.26954
C         -8.79559        -0.62666        -0.84193
C         -7.54404        -1.42964        -0.74348
C         -6.30656        -0.69248        -0.37328
C         -5.15851        -1.37730        -0.11805
C         -3.84542        -0.70896        -0.02858
C         -2.74775        -1.37533        -0.80510
C         -1.47829        -0.62104        -0.97519
C         -0.20496        -1.41917        -0.84833
C          1.11232        -0.67148        -0.81555
C          2.33053        -1.42644        -1.26749
C          3.60222        -0.63491        -1.43820
C          4.83369        -1.31846        -0.90659
C          6.13924        -0.58953        -0.72257
C          7.38871        -1.38046        -0.53218
C          8.77300        -0.76308        -0.81648
C          9.86514        -1.38785         0.05823
C         11.08033        -0.62124         0.30949
C        -10.08337        -2.75328        -0.32208
C         -8.92806        -3.53747        -0.23719
C         -7.57143        -2.95568        -0.59404
C         -6.47678        -3.46091         0.35150
C         -5.13641        -2.84240         0.02359
C         -3.93773        -3.61425        -0.40316
C         -2.76429        -2.88373        -0.98152
C         -1.50456        -3.65011        -1.27647
C         -0.21017        -2.92044        -0.99742
C          1.06803        -3.67203        -1.09646
C          2.34778        -2.89440        -0.77950
C          3.64402        -3.62155        -1.13224
C          4.89400        -2.81620        -1.00254
C          6.03415        -3.42468        -0.24830
C          7.33056        -2.70119        -0.23274
C          8.60977        -3.52818        -0.16267
C          9.75947        -2.70066         0.37274
C         -8.96121        -4.92215         0.04074
C         -7.75764        -5.73393         0.30434
C         -6.40024        -4.99317         0.39289
C         -5.20368        -5.74574        -0.01552
C         -4.06337        -5.07764        -0.77161
C         -2.69056        -5.75913        -0.47102
C         -1.50239        -5.18918        -1.29171
C         -0.18976        -5.79372        -0.85414
C          1.02780        -5.07012        -0.90697
C          2.33254        -5.82778        -0.83993
C          3.66080        -5.12703        -0.92168
C          5.01416        -5.82272        -0.54592
C          5.98352        -4.85377         0.13805
C          7.21807        -5.40938         0.76939
C          8.40926        -4.79690         0.64194
C         -7.68461        -7.17658         0.07608
C         -6.47618        -7.84286         0.18667
C         -5.21296        -7.12777         0.06394
C         -3.96521        -7.88476        -0.11757
C         -2.78667        -7.27315        -0.47546
C         -1.51409        -8.03800        -0.56800
C         -0.21178        -7.26580        -0.66796
C          1.02342        -7.96217        -0.17201
C          2.31607        -7.22455        -0.27894
C          3.50951        -7.72052         0.50560
C          4.86344        -7.11748         0.30434
C          6.05447        -7.59874         1.16966
C          6.90127        -6.47214         1.79017
C         -6.43298        -9.29130         0.28798
C         -5.26168        -9.96894         0.38575
C         -3.97419        -9.31572         0.20947
C         -2.80701        -9.99770         0.39393
C         -1.46058        -9.48796        -0.05139
C         -0.32334        -9.70288         0.94104
C          0.86658        -9.08012         0.80489
C          2.13856        -9.61263         1.45158
C          3.15194        -8.48980         1.77405
C          4.37592        -9.00414         2.48343
C          5.62194        -8.58090         2.24020
O          4.22312         5.10097         1.27666
O          1.32769        -0.11003         0.54282
O         -6.15123        -2.88378        -2.48286
H         -6.56401        -2.24260        -3.11539
O         -0.29703        -2.27253         0.35196
O          4.44003        -3.27915        -2.30242
O         -0.77139         1.44457        -1.92034
O         -5.98061         0.89028         1.43313
O         -1.96780         8.98506         1.92451
O          2.89205        -1.18577        -2.57833
O          2.73227       -10.53758         0.54054
H          2.90719       -10.06320        -0.30346
O          1.94761        -8.24414        -1.27399
O         -4.11672        -3.29774         1.00716
O         -1.58997        -5.50394        -2.76571
O          5.19077        -0.74718         0.38752
O          7.09109         1.00901        -2.37726
O          2.46395        -7.55035         2.64351
H          3.13022        -7.08383         3.19140
O         -2.45801         7.40661        -1.04163
O         -7.31067        -3.55535        -1.92720
O         -9.22885         1.40717        -2.13648
O         -3.38982        -0.14764         1.25357
O          0.38734         3.73916        -1.42560
O          3.07380        -5.76724        -2.10052
O          4.44444        -8.31082        -0.44980
O         -5.70841         5.69881         1.51588
O          8.15851         7.84870        -1.27540
H          7.46308         7.76460        -1.96024
O         -0.35507         5.00706         2.22395
O          8.95102        -3.85005        -1.53579
H          9.07368        -2.98431        -2.00804
O          5.11432         2.62784        -2.38535
O          6.33679         3.94813         0.96567
O         -4.43210        -5.15192        -2.14987
H         -3.79657        -4.61563        -2.68032
O         -2.55051        -6.53414        -3.02305
H         -1.97829        -7.31416        -3.24454
O          2.69640         1.53649        -2.33669
O          2.41848         7.55297         2.04253
O         -2.38874        -0.79899        -2.10076
O         -4.47630         9.20709         1.53999
H         -3.86718         8.85271         2.23206
O          8.81936         1.10840         0.88708
O          5.43996        -3.85975         1.06888
O          1.43800         6.00825        -0.98952
O         -2.96380         6.12449         2.36120
H         -3.41822         5.32928         2.73848
O         -7.05199        -5.44909         1.59674
O          5.65178        -6.17281        -1.77584
H          4.97371        -6.60010        -2.34611
O          5.75818         7.76498         1.61357
O         -1.64462         2.59736         1.55819
O         -0.79598        -7.94631        -1.84662
O         -2.37821        -3.19965        -2.34973
O         -8.17307        -1.12858        -2.05019
O         -3.87595         3.64449         2.30453
O          3.72294         7.89791        -1.38628
H         -3.12339         3.10718         2.65145
O         -6.84625        -2.96364         1.64583
H         -6.12591        -3.18221         2.27477
O         -3.31576         2.04811        -1.69929
H         -2.57592         2.28714        -2.30477
O         -9.80382         5.85482        -0.78814
H         -9.61136         5.71906        -1.73851
O          9.06271        -1.00222        -2.12894
O          6.15467        -5.86571         2.85895
H          5.98984        -4.92034         2.64038
O         -5.16257         7.09821        -1.77016
O         -3.22391         4.81803        -1.07888
H         -3.12081         5.70448        -1.51024
O          1.01221        10.10719         2.33698
H          0.30515         9.53773         2.72143
O         -1.12822       -10.35775        -1.16738
H         -0.53692        -9.84365        -1.76644
O          3.20688         4.26385        -2.18531
H          3.16362         3.46045        -2.75539
O          2.38472        -2.85742         0.67098
H          1.54343        -2.44689         0.99256
O          2.89873         2.66933         1.11601
H          3.35026         3.43636         1.54167
O         -9.93666        -0.94635         1.16765
H        -10.70400        -1.34218         1.63230
O         -0.04829         7.40835         2.90397
H          0.79835         7.07455         3.27484
O         -2.32634        -5.40726         0.88890
H         -3.12980        -5.42228         1.45309
O          6.95385        -8.29392         0.28575
H          6.40320        -8.85312        -0.30636
H         11.98867        -1.18443         0.57341
H         12.10209         1.25785         0.28977
H         10.88867         3.49314        -0.25543
H          9.69275         5.63294        -0.34665
H          8.40827         7.63487         0.75072
H          7.17843        10.05166        -0.26746
H          5.08016        11.30233        -0.09319
H          2.70612        11.30885         0.80161
H          0.09415        11.14772        -0.00808
H         -2.36848        10.95054         1.04753
H         -4.53228        11.05553        -0.89644
H         -6.53583         9.87102        -1.64924
H         -8.23501         7.76614        -0.86731
H         -9.05703         5.35528         1.05718
H        -10.89163         3.65618        -0.45540
H        -12.21967         1.37198        -1.14815
H        -12.24731        -1.03280        -0.78520
H        -11.05046        -3.23838        -0.10335
H         -9.93848        -5.43125         0.07758
H         -8.61399        -7.74583        -0.07569
H         -7.38905        -9.82893         0.36836
H         -5.26416       -11.05694         0.54598
H         -2.84495       -11.05756         0.68913
H         -0.40525       -10.56262         1.62478
H          1.88562       -10.16908         2.38794
H          4.20275        -9.74837         3.27717
H          6.44869        -9.00961         2.82849
H          7.84160        -6.92125         2.20604
H          9.27981        -5.19431         1.18904
H         10.57024        -3.20969         0.91920
