         420
 CSIRO Nanostructure Databank - Neutral Graphene Oxide Data Set
C         27.92246        28.14948         0.94297
C         28.04461        29.13353        -0.08030
C         26.95511        29.54535        -0.89609
C         28.43628        31.04884        -2.08366
C         27.16930        30.43313        -1.93489
C         28.54655        33.25946        -2.57347
C         27.43504        34.01165        -2.94530
C         28.23136        35.84520        -1.59544
C         27.24557        35.28681        -2.40138
C         28.01586        37.15378        -0.86391
C         26.80799        37.94318        -1.27908
C         27.97511        40.08860        -1.02100
C         26.79273        39.29799        -1.27153
C         27.92328        41.51216        -0.94216
C         26.68687        42.23361        -0.90317
C         27.85697        44.36478        -0.69268
C         26.65337        43.59922        -0.74515
C         27.84912        45.77617        -0.51007
C         30.34956        28.07395         1.20233
C         29.03749        27.67060         1.59686
C         30.48094        29.07900         0.24343
C         29.33652        29.67700        -0.33484
C         30.73762        31.57770        -1.13611
C         29.50749        30.77042        -1.24524
C         30.73055        33.00479        -1.26171
C         29.57343        33.76767        -1.73061
C         30.58189        35.83967        -0.80753
C         29.44382        35.13576        -1.35221
C         30.49603        37.27093        -0.65197
C         29.27752        37.97237        -0.83963
C         30.42902        40.13721        -0.69217
C         29.22552        39.39537        -0.85054
C         30.40559        41.57518        -0.76510
C         29.13913        42.26958        -0.87105
C         30.32273        44.48896        -0.91214
C         29.09636        43.68064        -0.82258
C         30.29264        45.91702        -0.57399
C         29.02229        46.51505        -0.41317
C         32.66888        25.80442         3.16552
C         31.56441        26.65695         2.83828
C         32.71956        27.37420         0.71983
C         31.54222        27.38235         1.68498
C         32.97318        28.79959         0.26311
C         31.79210        29.43558        -0.42380
C         33.07752        31.62021        -0.35036
C         31.87636        30.92665        -0.62059
C         33.06703        33.02806        -0.44410
C         31.87930        33.72412        -0.80414
C         32.96408        35.90766        -0.18671
C         31.81607        35.17184        -0.64468
C         32.84914        37.30166         0.04139
C         31.66587        37.99603        -0.29544
C         32.83025        40.15006        -0.18787
C         31.64449        39.44364        -0.35787
C         32.85888        41.57058        -0.51153
C         31.59732        42.29210        -0.64390
C         32.83911        44.49714        -0.29883
C         31.67379        43.74457        -0.81294
C         32.75175        45.89472        -0.18024
C         31.53301        46.62058        -0.43046
C         32.77975        48.74745        -0.30258
C         31.59605        48.04643        -0.45793
C         35.63309        22.88149         1.66815
C         35.65381        24.27693         1.86129
C         33.75276        25.68628         2.33617
C         35.35567        27.23253         0.98464
C         33.97562        26.63903         1.21993
C         35.38515        28.71407         0.77704
C         34.17040        29.44723         0.40242
C         35.40980        31.58392         0.46996
C         34.26347        30.89340         0.12936
C         35.47244        33.03251         0.39492
C         34.37074        33.78052        -0.34579
C         35.31036        35.89327         0.57190
C         34.21810        35.22598         0.07481
C         35.25613        37.33917         0.87293
C         33.97101        38.05997         0.64514
C         35.32150        40.20657         0.28605
C         33.97285        39.58477         0.60876
C         35.35560        41.59613         0.05686
C         34.13426        42.33718        -0.34569
C         35.27894        44.45764         0.12957
C         34.07611        43.79671        -0.09620
C         35.29019        45.88989         0.43399
C         33.91435        46.66351         0.29577
C         35.22892        48.78993         0.26762
C         33.98920        48.10636         0.07889
C         35.28856        50.21511         0.29402
C         37.83594        23.01067         0.66716
C         36.69332        22.26498         1.03538
C         37.83968        24.42927         0.85290
C         36.69624        25.08807         1.40183
C         37.85781        27.30211         1.07132
C         36.62459        26.60048         1.60905
C         37.82924        28.70901         1.01598
C         36.54920        29.40101         1.02785
C         37.82689        31.57725         1.10998
C         36.50453        30.88669         1.27493
C         37.80628        33.04955         1.39850
C         36.54575        33.71852         0.89492
C         37.79239        35.93322         1.46000
C         36.41215        35.16453         1.30106
C         37.71598        37.35960         0.90466
C         36.54971        38.06741         0.76975
C         37.75760        40.19334         0.25834
C         36.53909        39.49087         0.42890
C         37.79709        41.60689         0.11090
C         36.56233        42.31278         0.03841
C         37.72871        44.46541        -0.11737
C         36.54666        43.76382         0.00251
C         37.71517        45.93433        -0.17586
C         36.50370        46.66049         0.23974
C         37.72514        48.80116         0.32679
C         36.48620        48.07008         0.31043
C         37.73653        50.20103         0.36939
C         36.48276        50.89169         0.34987
C         40.20755        20.22730        -0.21947
C         39.04355        20.90652         0.04068
C         40.21666        23.05407        -0.01216
C         39.02905        22.32719         0.20417
C         40.22935        24.49274         0.16143
C         39.04477        25.16791         0.57917
C         40.23275        27.33018         0.44733
C         39.04102        26.59768         0.71991
C         40.23920        28.75417         0.54064
C         39.02323        29.44744         0.78798
C         40.25066        31.62040         0.68998
C         39.01458        30.89978         0.84974
C         40.24411        33.06610         0.71266
C         39.03195        33.78304         0.90822
C         40.24522        35.88885         0.81253
C         39.02156        35.18873         0.92668
C         40.25742        37.37119         1.10794
C         38.99869        37.99141         0.54917
C         40.28458        40.22041         0.32507
C         39.02579        39.47133         0.21684
C         40.26868        41.62462         0.13686
C         39.03285        42.30204        -0.02750
C         40.27242        44.49336        -0.07250
C         39.01254        43.74719        -0.46037
C         40.29551        45.90092        -0.08033
C         39.02359        46.66918        -0.17671
C         40.23798        48.82928         0.11289
C         39.02047        48.03749         0.48657
C         40.23420        50.21371         0.18147
C         38.99827        50.93694         0.40323
C         40.28144        53.01154         0.53245
C         39.05879        52.32457         0.56308
C         42.66314        20.23650        -0.54092
C         41.43789        20.92852        -0.35808
C         42.65884        23.05049        -0.50298
C         41.43724        22.35308        -0.31077
C         42.62135        24.54201        -0.70474
C         41.42459        25.21704        -0.06372
C         42.65405        27.35426         0.00552
C         41.43903        26.62883         0.11332
C         42.67591        28.77560         0.10497
C         41.45636        29.48181         0.34362
C         42.69740        31.60649         0.27038
C         41.47204        30.91030         0.43531
C         42.75973        33.04915         0.67847
C         41.45455        33.78546         0.58995
C         42.72584        35.93610         0.61095
C         41.46968        35.19843         0.64984
C         42.72245        37.37934         0.64388
C         41.50605        38.09632         0.67163
C         42.75269        40.22026         0.40872
C         41.51161        39.50328         0.47608
C         42.75848        41.63785         0.19352
C         41.51930        42.35335         0.06366
C         42.73709        44.52191        -0.20566
C         41.48776        43.76641        -0.03337
C         42.75080        45.98195        -0.03490
C         41.50800        46.63779        -0.02593
C         42.75288        48.84481        -0.13081
C         41.46244        48.10345        -0.37327
C         42.71141        50.23919        -0.14374
C         41.47860        50.94061         0.03714
C         42.76045        53.04198         0.35037
C         41.48657        52.34390         0.26713
C         43.84917        20.92809        -0.64536
C         45.13341        23.08233        -0.75766
C         43.87272        22.35268        -0.64437
C         45.14598        24.50554        -0.53389
C         43.93416        25.18386        -0.34230
C         45.22668        27.35730        -0.17690
C         43.91432        26.59289        -0.00432
C         45.10024        28.79129        -0.53045
C         43.87950        29.50874        -0.11936
C         45.15600        31.62885        -0.24901
C         43.90287        30.92095        -0.05341
C         45.15100        33.09780        -0.27848
C         43.87352        33.82095         0.01859
C         45.18867        35.90147         0.36097
C         43.93728        35.25495         0.35938
C         45.19391        37.31788         0.74984
C         43.95090        38.09220         0.62377
C         45.23677        40.22273         0.55780
C         43.98295        39.50731         0.55949
C         45.22364        41.65564         0.41858
C         44.00300        42.32710         0.18390
C         45.27165        44.54184         0.15175
C         44.05596        43.76234        -0.12939
C         45.22338        45.95151         0.14909
C         43.99906        46.68428         0.02097
C         45.20763        48.87498         0.01270
C         43.99829        48.13277        -0.02747
C         45.23745        50.27410        -0.26182
C         43.94842        51.03124        -0.50266
C         43.92793        52.42249         0.08223
C         47.55983        23.11326        -1.05901
C         46.34539        22.42822        -1.01709
C         47.62629        24.50735        -0.86419
C         46.41061        25.22179        -0.60693
C         47.64978        27.36742        -0.75194
C         46.44271        26.63164        -0.56569
C         47.66410        28.80070        -0.76883
C         46.38040        29.54082        -0.80183
C         47.59618        31.70862        -0.61748
C         46.37153        30.99314        -0.53956
C         47.63392        33.10983        -0.38447
C         46.42145        33.82881        -0.18815
C         47.68001        35.93133         0.10370
C         46.41908        35.21700         0.10063
C         47.72115        37.32462         0.31382
C         46.51043        38.06112         0.70876
C         47.70277        40.19516         0.45899
C         46.47115        39.52277         0.55612
C         47.69336        41.65537         0.65059
C         46.44478        42.40558         0.47594
C         47.75137        44.53532         0.30803
C         46.48444        43.81489         0.36713
C         47.76420        45.96085         0.24251
C         46.48373        46.67663         0.41327
C         47.74274        48.89523        -0.00123
C         46.48326        48.20845         0.32477
C         47.68740        50.20999        -0.38748
C         46.45313        50.91799        -0.43590
C         50.11966        24.56354        -1.06323
C         48.87650        25.23255        -0.93528
C         50.11361        27.38523        -0.96047
C         48.88403        26.65776        -0.88317
C         50.10495        28.81878        -0.93612
C         48.85747        29.51141        -0.87384
C         50.12116        31.70659        -0.82508
C         48.82420        31.00114        -1.14848
C         50.11518        33.11747        -0.61863
C         48.88700        33.82474        -0.39488
C         50.14597        35.94320        -0.18734
C         48.90254        35.22706        -0.17550
C         50.15955        37.35195         0.01577
C         48.93541        38.05143         0.21800
C         50.17250        40.17595         0.19289
C         48.93080        39.48288         0.33958
C         50.15012        41.62746        -0.03511
C         48.99195        42.40182         0.45744
C         50.22119        44.53245         0.12502
C         48.97036        43.84679         0.21711
C         50.21901        45.96008         0.19784
C         48.98133        46.65655         0.17736
C         50.22693        48.76928         0.57023
C         49.04712        48.13708        -0.13096
C         51.30843        25.26156        -1.13658
C         52.58535        27.41121        -1.17007
C         51.34514        26.67984        -1.09123
C         52.57050        28.83971        -1.11159
C         51.33303        29.54292        -1.00227
C         52.58450        31.68227        -0.97432
C         51.33693        30.98480        -0.91860
C         52.55888        33.14155        -1.03433
C         51.33786        33.85260        -0.65978
C         52.63274        35.95507        -0.30458
C         51.37399        35.24628        -0.42993
C         52.61336        37.33691         0.02047
C         51.40469        38.05998         0.08193
C         52.63962        40.25431         0.07838
C         51.39612        39.49914         0.14288
C         52.68394        41.61335        -0.12120
C         51.44238        42.38559        -0.25467
C         52.70109        44.51752         0.11715
C         51.44829        43.83077         0.02349
C         52.68065        45.95157         0.37801
C         51.46888        46.65628         0.38788
C         51.37667        48.07689         0.71739
C         55.02113        27.43600        -1.32431
C         53.83201        26.73990        -1.29152
C         55.03465        28.85178        -1.23322
C         53.80844        29.56120        -1.14100
C         55.07953        31.69302        -0.97613
C         53.81833        30.99561        -1.06412
C         55.12861        33.09076        -0.71070
C         53.92659        33.90506        -0.87997
C         55.11982        35.91286        -0.02324
C         53.88490        35.28009        -0.37641
C         55.14705        37.30355         0.29846
C         53.86588        38.01482         0.39466
C         55.17928        40.25131         0.38956
C         53.88448        39.53844         0.42033
C         55.19706        41.64200         0.21760
C         53.98017        42.34859        -0.35125
C         55.20761        44.57882        -0.16119
C         53.91100        43.82493        -0.01761
C         55.13321        45.96677         0.41043
C         53.95899        46.59824         0.61906
C         56.26930        29.56992        -1.22306
C         56.28765        30.93182        -1.07368
C         56.30202        33.76392        -0.27563
C         56.31006        35.11616        -0.00533
C         56.32242        38.05837         0.53469
C         56.33909        39.44668         0.60768
C         56.36719        42.43865         0.47766
C         56.38074        43.79263         0.37393
O         43.45819        44.10197        -1.42851
O         38.07133        36.00587         2.85731
O         34.46537        46.24194         1.57899
O         44.76339        27.00620         1.14813
O         45.94517        37.59770         1.98894
O         53.26403        33.72300        -2.17129
O         48.54163        42.05437         1.80373
O         34.76565        26.30266         0.02320
O         46.46753        47.50469         1.62615
O         50.56589        42.00461        -1.39160
O         31.14822        44.21077        -2.09348
O         33.75214        41.92116        -1.70491
O         34.34954        37.61957         2.00622
O         45.50794        29.10417        -1.90371
O         39.08948        38.40493        -0.83447
O         34.65798        24.73467         2.71144
O         28.61577        31.97433        -3.13006
O         53.72322        38.76747         1.66084
O         38.33169        46.52003        -1.44261
O         44.19250        33.56211        -1.36691
O         32.25896        26.59379        -0.43131
H         33.07409        26.29897        -0.90112
O         48.70638        31.08857        -2.61959
H         48.65985        32.03937        -2.85672
O         43.13851        33.05165         2.10520
H         42.37114        32.72363         2.62082
O         27.77151        36.76533         0.54185
H         27.66810        37.59178         1.05971
O         35.82560        35.10369         2.62864
H         36.48278        35.58387         3.21766
O         49.35488        48.21023        -1.57023
H         50.21323        47.75493        -1.70902
O         40.22834        37.51430         2.55259
H         39.44896        36.95706         2.88493
O         55.46067        44.72976        -1.60574
H         55.27069        43.84383        -2.00509
O         34.85868        33.85899        -1.73733
H         34.81161        32.95652        -2.11906
O         41.32961        48.10920        -1.85503
H         42.12389        47.66395        -2.22186
O         39.03315        43.73974        -1.93614
H         38.90126        44.67747        -2.21750
O         31.73894        28.85138        -1.76542
H         31.68527        27.87262        -1.62498
O         42.45856        24.75206        -2.16467
H         41.65448        24.26283        -2.44124
O         37.85679        33.20953         2.86188
H         37.95380        34.19516         3.04387
O         36.55215        26.87173         3.03232
H         37.41555        26.64741         3.43692
O         36.12762        31.03939         2.68356
H         36.50965        31.89303         3.00957
O         33.67255        40.05747         1.96414
H         33.93367        39.31768         2.56905
O         54.17801        42.29175        -1.83418
H         53.31204        42.50463        -2.24732
O         43.87753        51.20661        -1.96294
H         43.00120        51.59675        -2.16854
O         39.15399        47.71451         1.92278
H         39.12074        48.55791         2.42259
H         26.92647        27.75216         1.18751
H         25.95857        29.11122        -0.73099
H         26.35463        30.70933        -2.61736
H         26.69076        33.57456        -3.62278
H         26.32535        35.83843        -2.63359
H         25.86637        37.40201        -1.44969
H         25.85034        39.81565        -1.50055
H         25.73653        41.68477        -0.94969
H         25.68804        44.12014        -0.66774
H         26.88135        46.28557        -0.39656
H         28.92216        26.89338         2.36562
H         28.95375        47.59119        -0.19960
H         32.60406        25.15399         4.04631
H         30.69922        26.66632         3.51567
H         32.76485        49.83699        -0.44505
H         30.68313        48.60972        -0.69583
H         34.77591        22.30165         2.03296
H         34.35421        50.79309         0.28753
H         36.65713        21.17917         0.88743
H         36.46611        51.98947         0.37409
H         40.20261        19.13136        -0.30691
H         38.11635        20.32944         0.14646
H         40.29690        54.09509         0.71836
H         38.14242        52.90326         0.74143
H         42.65768        19.13747        -0.57098
H         42.75012        54.08730         0.69516
H         44.78476        20.36232        -0.74579
H         44.87504        52.97306         0.18031
H         48.47149        22.54005        -1.27282
H         46.36049        21.34556        -1.20027
H         48.61036        50.73465        -0.67211
H         46.47413        51.98373        -0.70143
H         50.15395        23.46656        -1.09596
H         50.17777        49.83216         0.84960
H         52.24048        24.68950        -1.23150
H         52.25563        48.57896         1.14672
H         55.97510        26.89607        -1.40907
H         53.86311        25.64441        -1.35256
H         56.08130        46.49625         0.59009
H         53.96678        47.63601         0.98257
H         57.21040        29.00934        -1.31725
H         57.25401        31.45347        -1.05886
H         57.23941        33.20237        -0.16187
H         57.25748        35.58361         0.29437
H         57.28865        37.53707         0.59314
H         57.31579        39.93894         0.71635
H         57.27536        41.92790         0.83201
H         57.30823        44.34398         0.59085
