         272
 CSIRO Nanostructure Databank - Neutral Graphene Oxide Data Set
C        -11.05770         0.79448         0.49215
C        -10.14642         1.68624        -0.34189
C         -8.78426         1.01419        -0.47554
C         -7.54058         1.68858        -0.04009
C         -6.35626         0.84002         0.33889
C         -5.03710         1.53945         0.55110
C         -3.83262         0.76707         1.04047
C         -2.54137         1.52280         1.23488
C         -1.19725         0.81720         1.23873
C          0.06153         1.55177         0.83911
C          1.45638         0.88890         0.70033
C          2.33293         1.32761        -0.47821
C          3.64272         0.59261        -0.58196
C          4.88877         1.35131        -0.95072
C          6.20436         0.62731        -1.03912
C          7.49857         1.37920        -0.84958
C          8.80050         0.65740        -0.72084
C          9.80110         1.39011         0.18249
C         11.12482         0.67926         0.31813
C        -10.03645         3.13645         0.12852
C         -8.90608         3.78549         0.47508
C         -7.62943         3.01309         0.78034
C         -6.34624         3.77407         0.37505
C         -5.03346         3.03351         0.56886
C         -3.82469         3.78655         1.06592
C         -2.51650         3.05586         1.20547
C         -1.21763         3.78600         0.85457
C         -0.09208         2.94167         0.27918
C          1.02097         3.56502        -0.52313
C          2.25649         2.78435        -1.03781
C          3.54627         3.56720        -0.74927
C          4.83711         2.82098        -0.62314
C          6.14963         3.54780        -0.48202
C          7.43770         2.80521        -0.36754
C          8.71565         3.58270        -0.32906
C          9.88162         2.86479        -0.13229
C         -8.91718         5.26902         0.87772
C         -7.64790         6.03937         0.50343
C         -6.39517         5.25821         0.31247
C         -5.11176         5.99147         0.51364
C         -3.84447         5.27086         0.82352
C         -2.63458         5.88432         0.14382
C         -1.28827         5.21120         0.38157
C         -0.16435         5.82767        -0.43391
C          1.12793         5.07432        -0.45937
C          2.38114         5.82021        -0.77658
C          3.57664         5.01191        -1.29360
C          4.92129         5.74686        -1.06571
C          6.19129         5.01429        -0.75843
C          7.42996         5.74404        -0.33999
C          8.64153         5.00380        -0.23752
C         -7.60227         7.38814         0.33935
C         -6.36560         8.12085        -0.08388
C         -5.06632         7.36892        -0.07872
C         -3.79723         8.15624         0.09061
C         -2.54694         7.39122         0.35320
C         -1.23085         8.07604         0.13196
C         -0.17090         7.31312        -0.63791
C          1.08049         8.16577        -0.96044
C          2.38129         7.29503        -1.23005
C          3.62051         7.95669        -0.62135
C          4.89958         7.19442        -0.65269
C          6.22186         7.94663        -0.72654
C          7.39427         7.12679        -0.23344
C         -6.22326         9.60208         0.01782
C         -5.05143        10.25132        -0.15574
C         -3.75892         9.54380        -0.55177
C         -2.46037        10.25738        -0.17416
C         -1.30520         9.56322        -0.08133
C         -0.04902         9.67617         0.77274
C          1.23538         9.29393         0.07707
C          2.42064         9.91368         0.23543
C          3.62265         9.48929        -0.59904
C          4.93907        10.00158        -0.05820
C          6.08892         9.31351        -0.09480
C        -11.00986        -0.55178         0.44212
C         -9.98157        -1.29518        -0.33955
C         -8.77952        -0.47098        -0.72053
C         -7.46462        -1.18405        -0.88003
C         -6.32530        -0.60000        -0.07614
C         -5.04471        -1.38487         0.16610
C         -3.82043        -0.71491         0.73583
C         -2.47352        -1.41164         0.79662
C         -1.21538        -0.69177         1.19210
C          0.11735        -1.39385         1.08571
C          1.38826        -0.64215         0.84228
C          2.57442        -1.44988         0.38315
C          3.86425        -0.71771         0.12655
C          5.09003        -1.53077        -0.17951
C          6.25071        -0.88945        -0.89437
C          7.56099        -1.63458        -0.86494
C          8.85994        -0.85811        -0.78059
C         10.04724        -1.51598        -0.12721
C         11.18996        -0.66021         0.30408
C         -9.79438        -2.77014        -0.25444
C         -8.69582        -3.42614        -0.72674
C         -7.47169        -2.68399        -1.11646
C         -6.12357        -3.39185        -1.10582
C         -4.92145        -2.70195        -0.53155
C         -3.61303        -3.43293        -0.37802
C         -2.37812        -2.74009         0.10757
C         -1.08167        -3.53776         0.22913
C          0.07872        -2.90871         0.94217
C          1.35887        -3.67040         1.00633
C          2.62065        -2.91682         0.65429
C          4.00629        -3.56080         0.84697
C          4.96369        -3.07235        -0.27520
C          6.30427        -3.84739        -0.27744
C          7.66565        -3.16738        -0.59999
C          8.78249        -3.63006         0.33756
C          9.90602        -2.86099         0.46979
C         -8.60302        -4.94650        -0.56383
C         -7.37298        -5.64799        -1.12396
C         -6.02893        -4.93344        -1.33028
C         -5.05584        -5.59084        -0.27969
C         -3.67236        -4.92465        -0.15692
C         -2.39947        -5.70760         0.02005
C         -1.06492        -5.00870        -0.09671
C          0.21640        -5.81872         0.03757
C          1.42600        -5.09919         0.52534
C          2.62350        -5.83910         1.02359
C          3.91186        -5.08125         1.06271
C          5.19159        -5.86171         1.00807
C          6.36345        -5.22639         0.30483
C          7.68061        -5.83967         0.63961
C          8.77738        -5.04386         0.73151
C         -7.34165        -6.99646        -1.21786
C         -6.03329        -7.73948        -1.44303
C         -4.96094        -7.10598        -0.52185
C         -3.70771        -7.89677        -0.31453
C         -2.42207        -7.21617         0.06806
C         -1.15143        -8.00327         0.11514
C          0.19855        -7.33932        -0.11936
C          1.27815        -8.05525         0.70382
C          2.55576        -7.34479         1.06003
C          3.85549        -8.11666         1.14812
C          5.16929        -7.35975         1.03918
C          6.35584        -7.99026         0.30675
C          7.68785        -7.35865         0.79654
C         -6.07741        -9.22860        -1.17025
C         -4.94057        -9.92522        -1.02328
C         -3.58188        -9.24460        -1.04928
C         -2.48193       -10.14076        -0.42659
C         -1.13273        -9.45670        -0.22559
C          0.03801       -10.13261        -0.15741
C          1.29145        -9.60056         0.52974
C          2.62621       -10.03752        -0.01410
C          3.84840        -9.57207         0.59826
C          5.17122       -10.18975         0.30129
C          6.32590        -9.50388         0.32885
O          5.85278         5.40955        -2.14834
O         -6.79842        -0.17698         1.25995
O          0.55504        -3.52614         2.19373
O         -1.84932        -7.68797         1.34752
O         -7.89486         1.74962        -1.42136
O          1.51769        -7.68184         2.06866
O          6.14213        -5.03547        -1.11845
O          5.47545         1.05106        -2.23992
O          0.99061        -1.00611         2.19296
O          4.91258        -0.84687         1.11177
O          9.90653        -1.42437        -1.60326
O         -5.55108        -5.09791        -2.61893
O          6.76839        -1.49886        -2.09622
O         -7.40653        -1.71714        -2.22082
O         -5.21816        -2.64384        -1.94949
O         -2.72268        -2.75750        -1.31183
O          5.53985        -6.59063         2.22090
O         -4.74678        -1.47305         1.58208
O          2.56622         0.39859        -1.55849
O         -6.41969         4.42148        -0.90852
O          4.14963         7.36604         0.59362
O          8.23619        -3.74552        -1.73207
O          2.32494        -2.38744        -0.69072
O         -0.16710         3.02712        -1.18840
O         -3.24661         3.53280         2.37004
O          2.03882         5.54342         0.59593
O          8.44985         1.29603        -1.96722
O         -4.74115        -7.84994         0.71688
O          1.23079        -5.28112        -0.89693
O         -0.49818         8.40478         1.41428
O         -7.55166         2.69668         2.10741
O         -3.13037        -5.19069         1.18444
O          0.82435         8.91960        -2.11136
O          3.14548        -5.32089         2.28356
O         -3.27327         8.02516         1.44013
O         -0.57203         6.42366        -1.71143
O         -4.69064         2.29164        -0.65783
O         -0.81455        -4.03356        -1.12666
O          3.78322        -9.20761         2.05686
O         -0.34208         1.44476         2.23607
O         -4.56164         5.96838         1.87017
O          6.68330         3.13608         0.83176
O         -3.35629         1.06535         2.36454
O         -0.88808         4.88394         1.73922
O         -2.01828        -1.39758         2.18199
O          4.04061         3.22195         0.55555
O         -9.77049        -0.82126        -1.71670
O         -5.76218         7.55617        -1.33016
O          3.43769         9.98503        -1.93509
H          2.50452         9.77342        -2.20744
O         -5.71625        -5.37712         0.98616
H         -5.19970        -5.87672         1.66135
O          8.71616        -7.93060        -0.01523
H          9.50715        -7.35405         0.00756
O         -2.91770       -10.56694         0.86931
H         -2.98057        -9.77541         1.44791
O          1.25630       -10.20712         1.84672
H          1.55312        -9.52378         2.49880
O         -5.58809        -7.62337        -2.81549
H         -5.61472        -6.64927        -3.06726
O         -3.19278        -8.95933        -2.40575
H         -3.97394        -8.53666        -2.85225
O          4.36776        -3.35990        -1.54014
H          5.04145        -3.22564        -2.24189
O          6.18720        -7.65492        -1.08859
H          7.07783        -7.66234        -1.50409
O          2.57873         7.29207        -2.64341
H          1.87269         7.88846        -3.01974
O          2.12250         2.69728        -2.44989
H          1.21733         2.38318        -2.66142
O          2.20785         1.35581         1.83365
H          1.68163         1.14800         2.64041
O         -8.62463        -5.24349         0.84706
H         -7.69157        -5.26737         1.16806
O          6.55985         8.13324        -2.13098
H          6.43459         7.26468        -2.58300
O          4.57507        -3.09982         2.08339
H          4.06334        -3.49767         2.82279
O          3.39749         4.88884        -2.70599
H          4.27728         4.79544        -3.13305
O        -10.06551         5.92861         0.36387
H        -10.00377         5.94438        -0.61324
O        -10.73334         1.75585        -1.66299
H        -10.00283         1.83297        -2.31353
O         -3.76637         9.36062        -1.98454
H         -4.55456         8.80653        -2.20339
O         -2.98364         5.65188        -1.24664
H         -2.25240         5.97748        -1.83091
O          0.51967        -7.64229        -1.49632
H          0.94472        -6.84801        -1.89815
O          9.16902         1.30175         1.50556
H          9.70159         1.82022         2.14501
H         12.14445        -1.17001         0.50767
H         12.01259         1.27632         0.57784
H         10.84500         3.38909        -0.02773
H          9.57398         5.56143        -0.05568
H          8.32977         7.66308        -0.00338
H          7.00833         9.76904         0.30562
H          4.93608        11.01124         0.38251
H          2.52216        10.75396         0.94138
H          0.05453        10.52197         1.48993
H         -2.48058        11.34818        -0.02269
H         -5.03416        11.34888        -0.06490
H         -7.12620        10.17766         0.27655
H         -8.52265         7.97728         0.47946
H         -9.00074         5.29389         2.00018
H        -10.96267         3.72602         0.02112
H        -11.83710         1.28155         1.09710
H        -11.72194        -1.14464         1.03699
H        -10.62406        -3.36312         0.16131
H         -9.52344        -5.40587        -1.01078
H         -8.25490        -7.58491        -1.03145
H         -7.05431        -9.73559        -1.14994
H         -4.97092       -11.01240        -0.85586
H         -2.35423       -11.05522        -1.05597
H          0.04413       -11.21339        -0.37020
H          2.69646       -10.77450        -0.82955
H          5.18157       -11.28262         0.16925
H          7.27682       -10.02916         0.15549
H          7.85811        -7.63240         1.87901
H          9.74943        -5.47759         1.02222
H         10.75004        -3.23775         1.06962
