         334
 CSIRO Nanostructure Databank - Neutral Graphene Oxide Data Set
C         31.09133        57.24145        -2.24812
C         31.16849        58.62504        -2.40810
C         30.44692        59.32789        -3.40897
C         31.59459        61.42634        -2.89292
C         30.64832        60.69577        -3.61601
C         33.14066        52.93173        -0.93431
C         33.09637        54.35498        -0.86701
C         32.06470        55.09479        -1.49916
C         33.07432        57.19500        -0.75700
C         32.03623        56.50593        -1.45624
C         33.04568        58.65034        -0.62590
C         32.03244        59.41916        -1.51196
C         33.39716        61.46969        -1.20384
C         32.36026        60.81536        -1.86327
C         35.70152        48.71668        -0.74345
C         35.48740        50.04746        -0.19779
C         34.38399        50.77700        -0.64746
C         35.24945        52.87830         0.28848
C         34.24387        52.19815        -0.41164
C         35.16164        54.33843         0.60077
C         34.14682        55.07000        -0.22104
C         35.31084        57.19202         0.32728
C         34.16566        56.47904        -0.20816
C         35.33676        58.61516         0.34055
C         34.23646        59.36132        -0.16063
C         35.42604        61.47357         0.18050
C         34.34019        60.78816        -0.35471
C         38.36803        44.67745        -1.47996
C         38.32970        46.07014        -1.22828
C         37.08807        46.73848        -1.31037
C         38.24215        48.78963        -0.72570
C         36.93610        48.09746        -0.92420
C         37.55472        50.06532         1.24582
C         36.47127        50.69599         0.63072
C         37.73075        52.84255         0.39741
C         36.42465        52.18106         0.87945
C         37.71147        54.33770         0.66980
C         36.50387        55.03706         0.62198
C         37.71532        57.16290         0.90230
C         36.49769        56.46281         0.64979
C         37.70298        58.60298         0.99095
C         36.52137        59.30336         0.78000
C         37.77220        61.46967         0.97865
C         36.43793        60.78785         1.05186
C         40.33498        40.24030        -0.79184
C         40.33667        41.60709        -0.55922
C         39.34962        42.46691        -1.11096
C         40.72226        44.49946        -0.65254
C         39.44972        43.86743        -1.10035
C         40.85651        46.03456        -0.67915
C         39.48813        46.71088        -0.59229
C         40.32160        48.58998         0.81807
C         39.32500        47.97394        -0.08438
C         40.12998        49.97636         1.46614
C         38.85486        50.76210         1.30967
C         40.21803        52.78798         0.89468
C         38.92365        52.09092         0.97424
C         40.21769        54.29959         0.80616
C         38.93187        55.04632         0.83909
C         40.18499        57.15461         1.47438
C         38.92346        56.43520         1.03780
C         40.15667        58.63605         1.16185
C         38.97496        59.31897         1.09343
C         40.21444        61.49119         1.12812
C         38.96408        60.78866         1.01863
C         42.67478        35.85158        -0.97918
C         42.65751        37.26658        -0.68026
C         41.47921        38.04051        -0.78453
C         42.66585        40.03212         0.01311
C         41.47315        39.41660        -0.47402
C         42.67840        41.42642         0.39764
C         41.35803        42.17869         0.40029
C         42.63031        44.27490         1.04658
C         41.63996        43.64214         0.14949
C         42.55463        45.60883         1.31124
C         41.90899        46.57596         0.33193
C         42.65082        48.58247         1.57592
C         41.64494        47.95325         0.89498
C         42.62879        50.02011         1.78230
C         41.40396        50.72560         1.62466
C         42.63689        52.85106         1.51936
C         41.43445        52.11723         1.39272
C         42.63856        54.29854         1.40277
C         41.45586        54.99863         1.16319
C         42.69510        57.16394         1.40757
C         41.44839        56.48069         0.91427
C         42.62666        58.62681         1.58305
C         41.47087        59.34367         0.91377
C         42.66039        61.51305         1.36819
C         41.43335        60.82691         1.22309
C         45.14744        33.08716        -1.40744
C         43.92636        33.75648        -1.36605
C         45.15767        35.94137        -1.11145
C         43.86323        35.15280        -1.10516
C         45.10993        37.08970        -0.11125
C         43.85747        37.90721        -0.28672
C         45.11520        39.92804         0.35234
C         43.86956        39.27047         0.06939
C         45.10018        41.26497         1.03997
C         43.81979        42.04337         0.84031
C         45.12286        44.16178         1.23905
C         43.81260        43.42400         1.47292
C         45.08677        45.62255         1.46681
C         43.82748        46.42021         1.27074
C         45.14754        48.54960         1.69415
C         43.86565        47.78778         1.97903
C         45.13188        50.00509         1.78345
C         43.85936        50.72450         1.83757
C         45.08029        52.88984         1.81822
C         43.86272        52.15516         1.76619
C         45.08932        54.29780         1.70904
C         43.87815        55.01670         1.55464
C         45.14104        57.17200         1.73709
C         43.88165        56.46478         1.59230
C         45.18919        58.64927         2.11115
C         43.87717        59.39455         1.87219
C         45.12060        61.48989         1.37800
C         43.89873        60.84124         1.52093
C         46.36977        33.73827        -1.16318
C         47.59752        35.80880        -0.61043
C         46.41867        35.12363        -0.91524
C         47.61268        37.21689        -0.35395
C         46.37208        37.90909        -0.20399
C         47.57694        40.10317        -0.12880
C         46.32977        39.28422         0.07640
C         47.55082        41.44245         0.56505
C         46.37494        42.07298         0.84251
C         47.57763        44.28173         0.93404
C         46.33233        43.51775         1.08849
C         47.59078        45.68783         1.05633
C         46.37157        46.38943         1.48248
C         47.58181        48.55044         1.32854
C         46.33115        47.86992         1.45999
C         47.65569        49.99321         1.75290
C         46.32155        50.70134         1.77093
C         47.58228        52.88305         1.51797
C         46.37099        52.17041         2.09824
C         47.53882        54.31796         1.47390
C         46.34776        55.02255         1.62115
C         47.58525        57.20349         1.42330
C         46.33588        56.47631         1.60185
C         47.58645        58.64111         1.34274
C         46.38990        59.36760         1.54070
C         47.56478        61.46031         1.02303
C         46.36738        60.77520         1.33946
C         48.83010        37.92764        -0.17203
C         50.05765        40.04636         0.06905
C         48.86034        39.31910         0.01975
C         50.07290        41.46121         0.22974
C         48.86462        42.12797         0.84878
C         49.96926        44.34873         0.37248
C         48.80052        43.62050         0.63936
C         49.95949        45.77566         0.42984
C         48.76122        46.44135         0.80429
C         50.00283        48.60898         0.84520
C         48.75279        47.87850         0.97972
C         50.02090        49.99945         0.92408
C         48.68887        50.72565         0.90168
C         50.02087        52.88221         1.08915
C         48.74814        52.19375         1.22483
C         50.02257        54.27117         1.12912
C         48.73792        55.02134         0.91130
C         49.96497        57.21085         0.89596
C         48.77944        56.50656         1.17987
C         49.97867        58.61443         0.74379
C         48.78163        59.33752         0.97281
C         49.99968        61.44741         0.55201
C         48.78337        60.77171         0.85256
C         51.21746        42.20878         0.01489
C         52.37201        44.36283        -0.17298
C         51.22616        43.65000         0.08159
C         52.36451        45.85185        -0.37446
C         51.16523        46.52706         0.23485
C         52.47315        48.61276         0.52839
C         51.21352        47.89042         0.52445
C         52.49666        49.97937         0.75188
C         51.25758        50.72679         0.87064
C         52.54797        52.90927         1.01553
C         51.25107        52.12646         0.96897
C         52.37190        54.21737         0.24545
C         51.28155        55.00805         0.93563
C         52.32111        57.10553        -0.07568
C         51.24363        56.48098         0.77063
C         52.37373        58.59899         0.10093
C         51.20027        59.30471         0.37642
C         52.40389        61.41718        -0.04762
C         51.20805        60.75340         0.32785
C         53.65482        46.52599         0.01682
C         55.04166        48.48871         0.65850
C         53.70421        47.83220         0.37014
C         55.00946        49.97634         0.40419
C         53.81520        50.70323         0.96860
C         54.86600        52.81832         0.08103
C         53.76060        52.14729         0.55052
C         54.86063        54.27045        -0.07134
C         53.65728        54.98585         0.09727
C         54.84988        57.10019        -0.12258
C         53.64272        56.38320         0.03275
C         54.80952        58.52829         0.12308
C         53.61811        59.27857        -0.02998
C         54.69176        61.34080        -0.95706
C         53.60796        60.71193        -0.30218
C         56.06584        50.64552        -0.12225
C         57.20077        52.78183        -0.68081
C         56.08500        52.09518        -0.25738
C         57.21966        54.22184        -0.80707
C         56.02965        54.96697        -0.47045
C         57.11685        57.05618        -1.22701
C         56.02159        56.39350        -0.56977
C         57.06621        58.43756        -1.62752
C         55.79935        59.20748        -1.89068
C         57.00954        61.32446        -1.78682
C         55.83362        60.66719        -1.52064
C         58.34506        54.90550        -1.25059
C         59.42876        56.96530        -2.07483
C         58.31836        56.31623        -1.49385
C         59.41364        58.35431        -2.33633
C         58.22205        59.09643        -2.02441
C         59.15294        61.09099        -3.18449
C         58.31040        60.60740        -2.03606
C         60.44247        59.01778        -3.05701
C         60.23182        60.32855        -3.56097
O         42.90659        59.10181         2.94663
O         38.52670        49.88175        -1.20071
O         31.77799        59.19296        -0.10281
O         43.37983        46.71949        -0.16348
O         54.88613        58.71360        -2.54520
O         51.71737        55.88946         2.02707
O         41.91772        43.89392        -1.27518
O         45.76701        45.91121         2.75690
O         39.92285        48.78013         2.27737
O         40.39548        53.45964        -0.41614
O         41.74739        59.25936        -0.51981
H         40.92185        59.47480        -1.00200
O         40.27454        57.01831         2.92014
H         39.55727        57.54957         3.32510
O         51.90802        56.86882        -1.46986
H         52.52201        57.37094        -2.05084
O         40.80652        42.08331         1.74898
H         40.52783        41.15383         1.89089
O         52.79083        53.25043         2.40732
H         52.98700        52.40355         2.87325
O         45.40528        58.65559         3.55933
H         44.50980        58.58433         3.96648
O         47.53400        40.45868        -1.56350
H         48.41609        40.81589        -1.80337
O         51.89802        53.90102        -1.08727
H         51.78035        54.75881        -1.56106
O         45.11256        40.91841         2.47553
H         44.85814        41.74162         2.96591
O         45.26025        36.54610        -2.43177
H         45.29382        35.82165        -3.09044
O         48.16638        50.00879         3.13145
H         47.62891        49.37466         3.65279
O         37.42592        48.79504         1.67068
H         38.25871        48.51541         2.13731
O         48.55792        54.95723        -0.56756
H         48.42644        54.01273        -0.80168
O         54.00166        50.72071         2.44142
H         54.89388        51.09255         2.61309
O         37.81207        52.68124        -1.03293
H         38.74106        52.88396        -1.29804
O         45.07214        36.50455         1.22495
H         45.05771        37.23944         1.87389
O         52.23366        46.05397        -1.83921
H         52.90779        45.48775        -2.27111
O         36.39749        52.35286         2.33231
H         35.82111        53.13201         2.54138
O         34.67274        54.41871         2.02483
H         33.72943        54.14579         2.01753
O         46.57986        52.24795         3.55578
H         47.36014        51.67274         3.74960
O         55.89775        59.13741         0.64883
H         56.63757        58.50289         0.74348
O         43.77354        47.58907         3.40928
H         44.51522        46.98490         3.65857
O         59.10218        60.91773        -0.81562
H         60.01202        60.58727        -0.98006
O         41.36043        56.63374        -0.53666
H         42.09703        56.13055        -0.94281
O         56.09557        47.85215        -0.06112
H         55.90204        47.92796        -1.01773
O         49.05838        41.96052         2.30097
H         49.91203        42.38450         2.53194
O         35.96329        60.92879         2.44994
H         35.06491        60.53636         2.49024
O         48.21268        50.64229        -0.47948
H         48.93613        50.94530        -1.06752
O         43.70964        43.21300         2.92346
H         42.79742        42.89172         3.09882
O         41.31293        46.38028        -2.00205
H         42.04674        45.75955        -2.21335
H         30.38727        56.67160        -2.87314
H         29.74129        58.77542        -4.04561
H         31.77571        62.48274        -3.13710
H         30.07744        61.20260        -4.40704
H         32.33690        52.39531        -1.45869
H         31.28375        54.55853        -2.05893
H         33.58585        62.53040        -1.42854
H         34.80361        48.16623        -1.07337
H         33.66236        50.29539        -1.32427
H         35.50986        62.56031         0.02816
H         37.44826        44.18834        -1.83565
H         36.19918        46.15775        -1.60318
H         37.78016        62.57072         0.97509
H         39.52493        39.79516        -1.39000
H         38.47115        42.01013        -1.59343
H         40.18613        62.58719         1.22995
H         41.71415        35.32808        -1.10415
H         40.55482        37.57080        -1.15274
H         42.66199        62.61333         1.31712
H         45.15421        32.00283        -1.58983
H         42.99045        33.19150        -1.49013
H         45.13230        62.56848         1.15940
H         47.29708        33.14791        -1.11834
H         48.55110        35.25833        -0.58374
H         47.53772        62.55288         0.89826
H         49.77897        37.36970        -0.18888
H         51.01371        39.52128        -0.08603
H         49.99194        62.54590         0.48380
H         52.13693        41.70283        -0.31876
H         53.30187        43.82009        -0.40868
H         52.37642        62.50360        -0.22343
H         54.59679        45.96649        -0.10342
H         55.26446        48.34367         1.75374
H         54.67802        62.44115        -1.02240
H         56.95277        50.07884        -0.44815
H         58.11585        52.22643        -0.93763
H         57.08590        62.40216        -1.56744
H         59.26427        54.34788        -1.48533
H         60.31504        56.37275        -2.34658
H         59.00296        62.10027        -3.59244
H         61.33139        58.45253        -3.37012
H         60.94748        60.72545        -4.29674
