         620
 CSIRO Nanostructure Databank - Neutral Graphene Oxide Data Set
C         23.05337        27.42869        -1.42193
C         23.03653        28.76722        -1.63528
C         23.09874        31.83762        -1.72309
C         23.16912        33.19325        -1.78781
C         23.29237        36.11231        -1.97163
C         23.28132        37.49296        -1.82416
C         23.12589        40.32329        -1.04783
C         23.09777        41.68034        -0.81860
C         23.06474        44.60254        -0.55066
C         23.01727        45.95410        -0.42755
C         25.34653        24.61759        -0.47138
C         24.20360        25.31482        -0.79147
C         25.47947        27.38586        -0.90849
C         24.24904        26.71764        -1.01292
C         25.49347        28.85760        -0.99821
C         24.21737        29.59219        -1.32980
C         25.66216        31.74444        -1.74690
C         24.30440        31.01264        -1.82607
C         25.63910        33.21110        -1.57149
C         24.41908        33.90635        -1.71316
C         25.56122        35.99725        -1.05230
C         24.41458        35.33994        -1.58930
C         25.56872        37.44081        -0.94345
C         24.39337        38.17877        -1.30836
C         25.54747        40.30068        -0.78860
C         24.35618        39.61217        -1.06041
C         25.53440        41.70255        -0.56372
C         24.29322        42.41156        -0.58947
C         25.49160        44.49362        -0.10341
C         24.27817        43.83226        -0.36209
C         25.48479        45.91554         0.26247
C         24.15641        46.70630         0.10355
C         25.47363        48.78291         0.06814
C         24.28216        48.14674        -0.11370
C         27.82381        23.09550        -0.16812
C         27.81871        24.54268        -0.09446
C         26.61100        25.26618        -0.38388
C         27.94372        27.34519        -0.50924
C         26.68289        26.67354        -0.61240
C         28.06218        28.75246        -0.94602
C         26.79689        29.53102        -1.26102
C         28.13361        31.63409        -1.23948
C         26.84730        30.99018        -1.31611
C         28.11056        33.22239        -1.07842
C         26.80086        33.90086        -1.12262
C         27.81345        35.84132         0.12790
C         26.73317        35.26233        -0.76274
C         27.80292        37.42936         0.22834
C         26.74729        38.10632        -0.58952
C         28.01686        40.26779        -0.23580
C         26.86497        39.56902        -0.91108
C         28.00459        41.67044        -0.17026
C         26.76515        42.40477        -0.33041
C         27.98067        44.54071        -0.01899
C         26.74301        43.80213        -0.14562
C         27.95614        45.94618         0.05233
C         26.73827        46.67461         0.20150
C         27.96712        48.81567         0.38523
C         26.71767        48.07947         0.26018
C         27.98557        50.20859         0.63031
C         30.25785        22.97640         0.18097
C         28.96349        22.36506        -0.15891
C         30.26061        24.50456         0.39883
C         29.02517        25.24060         0.09633
C         30.37262        27.35727         0.02506
C         29.10357        26.65270        -0.12204
C         30.42022        28.77773        -0.13957
C         29.27620        29.51037        -0.58973
C         30.48105        31.64355        -0.35715
C         29.30993        30.90586        -0.71975
C         30.45636        33.08561        -0.23523
C         29.25977        33.84273        -0.41736
C         30.32061        35.92843         0.33560
C         29.18493        35.23158        -0.08477
C         30.34574        37.37408         0.41529
C         29.16586        38.10155         0.16475
C         30.41150        40.23344         0.33890
C         29.19508        39.52756         0.09010
C         30.42628        41.66701         0.33722
C         29.21347        42.38686         0.11197
C         30.45720        44.49724         0.23711
C         29.22632        43.81468         0.07475
C         30.52820        45.94516         0.03377
C         29.20184        46.71169        -0.06961
C         30.44123        48.81812         0.42715
C         29.20533        48.13808         0.27075
C         30.42572        50.22963         0.60368
C         29.18311        50.89562         0.70851
C         32.61752        20.75902        -1.72818
C         31.47064        21.23050        -1.10158
C         32.75139        23.08015        -0.10537
C         31.52024        22.39396        -0.31417
C         32.73023        24.45332         0.35978
C         31.55738        25.19831         0.35714
C         32.78133        27.35621         0.55986
C         31.56772        26.65121         0.33330
C         32.79425        28.75921         0.49701
C         31.63349        29.48779         0.09247
C         32.86667        31.64218         0.26904
C         31.65266        30.92198         0.00705
C         32.84203        33.06431         0.38757
C         31.61619        33.74856         0.26159
C         32.82057        35.90627         1.00720
C         31.52184        35.15550         0.67536
C         32.82580        37.37962         0.84425
C         31.59623        38.07512         0.60772
C         32.85155        40.21276         0.70154
C         31.61782        39.50168         0.55946
C         32.86614        41.64292         0.76101
C         31.63486        42.37451         0.59384
C         32.85922        44.53575         0.81240
C         31.65108        43.80318         0.56517
C         32.90726        45.94182         0.77207
C         31.72540        46.68749         0.45138
C         32.91571        48.80686         0.78558
C         31.69447        48.08934         0.51926
C         32.90430        50.23876         0.79099
C         31.67634        50.95602         0.68619
C         32.90511        53.06214         0.73026
C         31.70645        52.36409         0.67294
C         35.91716        18.90295        -1.82799
C         35.82536        20.26315        -1.52558
C         33.83223        21.40483        -1.48369
C         35.28700        23.02934        -0.25964
C         33.97042        22.49380        -0.59877
C         35.29277        24.38504         0.37589
C         34.01617        25.10589         0.69807
C         35.31126        27.29631         0.65540
C         34.01250        26.60309         1.05987
C         35.37638        28.73245         0.86295
C         34.00750        29.52472         0.82353
C         35.31909        31.64007         0.60009
C         34.07236        30.94773         0.52798
C         35.32905        33.05834         0.63376
C         34.07351        33.77761         0.65417
C         35.33269        35.85560         1.11944
C         34.07247        35.15292         0.86538
C         35.31618        37.37562         1.16749
C         34.04032        38.07580         0.90273
C         35.31838        40.20146         0.88558
C         34.07400        39.49844         0.81237
C         35.31190        41.61977         0.97103
C         34.07924        42.32799         0.95898
C         35.36389        44.50152         1.16381
C         34.04850        43.78406         1.34595
C         35.35872        45.95164         1.18358
C         34.14480        46.66020         1.01590
C         35.35042        48.83425         1.18617
C         34.13259        48.09983         0.98509
C         35.33514        50.24467         1.17325
C         34.12928        50.96102         0.92913
C         35.39445        53.11772         0.82999
C         34.13596        52.39192         0.85153
C         35.43572        54.52213         0.53759
C         37.87746        18.74125        -0.41341
C         36.91401        18.13361        -1.22499
C         37.82668        20.15521        -0.17432
C         36.68915        20.92078        -0.62391
C         37.68578        23.02044         0.32366
C         36.49184        22.32074        -0.24583
C         37.74783        24.49976         0.22992
C         36.53982        25.17989         0.27751
C         37.75034        27.32519         0.28545
C         36.49990        26.60976         0.37523
C         37.75093        28.74567         0.25614
C         36.57920        29.48249         0.49054
C         37.76889        31.65155         0.36430
C         36.56391        30.91899         0.50117
C         37.80013        33.05909         0.51242
C         36.56896        33.76809         0.66403
C         37.80980        35.90558         0.78199
C         36.60211        35.17916         0.82994
C         37.80597        37.35255         0.83830
C         36.59000        38.07353         0.92295
C         37.79856        40.21017         0.82505
C         36.56942        39.49075         0.87141
C         37.77819        41.64083         0.93448
C         36.55569        42.33482         1.05729
C         37.84210        44.45816         1.50828
C         36.54210        43.77719         1.16966
C         37.82290        45.94450         1.28152
C         36.60780        46.65943         1.26856
C         37.80096        48.79684         1.49954
C         36.60317        48.11378         1.31664
C         37.85368        50.25975         1.68187
C         36.54772        51.02665         1.48462
C         37.86174        53.12515         0.97528
C         36.59990        52.45079         1.08575
C         37.88549        54.53195         0.57908
C         36.61987        55.19507         0.43172
C         40.28691        15.82470         0.00451
C         39.12923        16.50076        -0.12903
C         40.25844        18.70964         0.53795
C         38.98769        17.94662         0.17199
C         40.25435        20.17128         0.33993
C         39.01299        20.83118         0.25337
C         40.26169        23.03358         0.34791
C         38.99531        22.28548         0.45293
C         40.24573        24.45102         0.34326
C         38.99731        25.18963         0.29800
C         40.22519        27.34446         0.37812
C         38.98838        26.61060         0.27231
C         40.27785        28.72958         0.24842
C         39.01843        29.44566        -0.01630
C         40.29915        31.65584         0.26430
C         39.02262        30.95851         0.04141
C         40.28445        33.06698         0.40243
C         39.04216        33.78114         0.49380
C         40.28777        35.92050         0.57406
C         39.04981        35.19882         0.61197
C         40.28315        37.35565         0.60580
C         39.04085        38.06921         0.70793
C         40.25618        40.22647         0.52245
C         39.03002        39.49604         0.70525
C         40.21315        41.63610         0.50540
C         39.02687        42.36687         0.82224
C         40.28315        44.50922         0.81266
C         39.06769        43.76549         0.96786
C         40.28956        45.94389         1.02864
C         39.07357        46.61457         1.28111
C         40.36897        48.82297         1.46620
C         39.05940        48.05303         1.57917
C         40.31206        50.27845         1.25396
C         39.11465        50.99082         1.40976
C         40.33450        53.05774         0.82068
C         39.06289        52.40342         1.16604
C         40.34414        54.44666         0.26123
C         39.08050        55.20651         0.26905
C         40.27517        57.08085        -0.80968
C         39.17477        56.58336        -0.18160
C         42.82639        15.85862        -0.05413
C         41.56639        16.45763         0.38879
C         42.79691        18.70265         0.24311
C         41.56933        17.98436         0.59892
C         42.70279        20.14468        -0.05040
C         41.46652        20.89182         0.25403
C         42.73179        23.04573         0.17310
C         41.48584        22.32294         0.23453
C         42.72106        24.46327         0.33235
C         41.48094        25.14352         0.42065
C         42.76704        27.35381         0.66195
C         41.45257        26.59089         0.66987
C         42.74135        28.79959         0.40665
C         41.51025        29.47737         0.30460
C         42.74829        31.63063         0.37162
C         41.50588        30.92206         0.27560
C         42.74607        33.05527         0.42718
C         41.52028        33.78091         0.44646
C         42.77202        35.91208         0.47067
C         41.52267        35.20938         0.49976
C         42.76438        37.36541         0.44451
C         41.51263        38.07027         0.51248
C         42.73626        40.19051         0.30376
C         41.50882        39.50230         0.42592
C         42.71612        41.63127         0.03560
C         41.40416        42.40692         0.14502
C         42.69363        44.56550         0.19355
C         41.46029        43.85241         0.41123
C         42.70083        46.00901         0.39375
C         41.51941        46.68115         0.83907
C         42.75949        48.81874         0.81109
C         41.56011        48.09134         1.00631
C         42.80005        50.26162         0.93754
C         41.57027        50.94716         1.05935
C         42.80933        53.00501         1.31121
C         41.58749        52.35531         1.15056
C         42.73177        55.13050         0.73175
C         41.59323        55.23549         0.02779
C         42.77956        56.91691        -1.37631
C         41.47526        56.19461        -1.12638
C         43.97899        16.58146        -0.06504
C         45.25385        18.76311        -0.07891
C         43.99678        18.02178         0.07893
C         45.25470        20.17558        -0.19595
C         43.97699        20.91473        -0.29771
C         45.18545        23.06944        -0.05537
C         43.97581        22.37538        -0.04663
C         45.20535        24.47934         0.18011
C         43.97189        25.19101         0.32916
C         45.22102        27.32273         0.33305
C         44.00526        26.60165         0.41629
C         45.21335        28.76026         0.38554
C         43.98432        29.49105         0.36964
C         45.21476        31.63430         0.55120
C         43.98462        30.92190         0.39434
C         45.19743        33.04153         0.66896
C         43.98477        33.76123         0.54543
C         45.26439        35.89394         0.49579
C         43.98610        35.19467         0.51075
C         45.24600        37.32126         0.00107
C         43.97460        38.06919         0.33812
C         45.22794        40.19761         0.13380
C         43.99209        39.49556         0.28781
C         45.25549        41.67626         0.17523
C         43.95780        42.42835         0.17562
C         45.12209        44.58855        -0.43626
C         43.87145        43.87479        -0.12162
C         45.12289        46.07404        -0.25785
C         43.90372        46.73972         0.25635
C         45.22484        48.85702         0.63182
C         43.94485        48.12292         0.50445
C         45.25249        50.32743         0.56918
C         44.01586        51.00873         0.76198
C         45.21096        53.22057         0.53542
C         44.03318        52.43329         0.89166
C         45.20739        54.64702         0.32026
C         44.06853        55.71598         0.42985
C         43.94187        56.63462        -0.76955
C         47.68500        18.80378        -0.24571
C         46.49872        18.10301        -0.05985
C         47.68099        20.19750        -0.41516
C         46.46016        20.88891        -0.33201
C         47.72412        23.03055        -0.08278
C         46.43985        22.38841        -0.56581
C         47.69893        24.40638         0.54030
C         46.43681        25.18856         0.25806
C         47.70894        27.32021         0.35194
C         46.45588        26.59241         0.31082
C         47.68274        28.74770         0.40196
C         46.44877        29.47260         0.43272
C         47.69286        31.59262         0.62347
C         46.45836        30.89587         0.56007
C         47.71858        33.05034         0.93576
C         46.40168        33.78024         1.20923
C         47.72160        36.00725         0.99839
C         46.43119        35.24292         0.77495
C         47.70423        37.43060         0.50466
C         46.51031        38.09658         0.28473
C         47.72260        40.24707         0.18413
C         46.48922        39.52336         0.13519
C         47.74855        41.68626         0.06720
C         46.48368        42.31288        -0.45743
C         47.68228        44.60154        -0.09896
C         46.46132        43.84628        -0.46167
C         47.69608        45.97753        -0.08952
C         46.44839        46.76511        -0.18185
C         47.72933        48.90710         0.16237
C         46.50643        48.13307         0.41302
C         47.70275        50.31018         0.17983
C         46.45503        51.03430         0.37928
C         47.64585        53.16959        -0.00703
C         46.43117        52.48423         0.30652
C         47.61998        54.56707        -0.10910
C         46.42904        55.26879         0.03531
C         50.21809        20.25348        -0.56359
C         48.92058        20.97276        -0.82794
C         50.17894        23.05560        -0.03225
C         48.90766        22.37465        -0.24759
C         50.15522        24.49181         0.11252
C         48.96657        25.18186         0.26807
C         50.17967        27.35399         0.31970
C         48.94324        26.62397         0.30035
C         50.13709        28.75563         0.44851
C         48.91029        29.46705         0.43485
C         50.16514        31.61311         0.32912
C         48.91054        30.89962         0.49513
C         50.08642        33.07038        -0.11365
C         48.97697        33.80705         0.65193
C         50.14773        35.97884         0.42300
C         48.97267        35.28731         0.56145
C         50.19194        37.43093         0.43907
C         48.95174        38.13063         0.44485
C         50.20195        40.24056         0.37711
C         48.95608        39.54666         0.32911
C         50.16605        41.70039         0.49908
C         48.90197        42.40268         0.24797
C         50.17937        44.58189        -0.00649
C         48.90451        43.89796         0.45208
C         50.17031        45.99376        -0.11877
C         48.93389        46.73363         0.02761
C         50.19307        48.88694        -0.00685
C         48.92647        48.13935         0.02206
C         50.15849        50.33926        -0.25686
C         48.93015        51.03546        -0.09460
C         50.10965        53.11353        -0.50710
C         48.89956        52.44693        -0.20885
C         51.34538        20.90346        -0.20694
C         52.65392        23.02548         0.12714
C         51.38089        22.34450        -0.03229
C         52.70656        24.46651        -0.23112
C         51.41384        25.22810        -0.12907
C         52.67334        27.32623         0.29311
C         51.44532        26.67253         0.17620
C         52.69056        28.76235         0.62713
C         51.37828        29.50447         0.67790
C         52.64749        31.58184        -0.00230
C         51.36255        30.95002         0.39206
C         52.65997        33.04648        -0.26522
C         51.42427        33.77780         0.15875
C         52.68011        36.02957         0.17594
C         51.43534        35.25590         0.34794
C         52.67765        37.39347         0.28888
C         51.42342        38.12532         0.37834
C         52.68207        40.29116         0.12750
C         51.43506        39.55894         0.35797
C         52.67775        41.69491        -0.07082
C         51.47236        42.46656         0.25173
C         52.56162        44.53456        -0.61965
C         51.38688        43.88229        -0.14555
C         52.51265        45.93545        -0.83411
C         51.37337        46.65923        -0.47379
C         52.60864        48.85482        -0.87384
C         51.45391        48.12317        -0.32597
C         52.59516        50.27453        -0.87823
C         51.35910        51.01471        -0.58162
C         51.29617        52.42253        -0.70097
C         54.99183        23.15406         0.87583
C         53.77588        22.42654         0.65087
C         55.14409        24.47270         0.53514
C         54.05086        25.20097        -0.21385
C         55.13217        27.34540         0.47580
C         53.94170        26.65490         0.22236
C         55.15945        28.79157         0.51633
C         53.94758        29.51463         0.42546
C         55.16046        31.64069         0.28837
C         53.94138        30.90426         0.25417
C         55.20998        33.06971         0.08388
C         53.96149        33.79488        -0.27549
C         55.21934        35.98220         0.07115
C         53.93193        35.28219        -0.07494
C         55.20545        37.38955         0.01766
C         53.97710        38.15296         0.47889
C         55.09322        40.28172        -0.32471
C         53.91266        39.58815        -0.00464
C         55.07473        41.67553        -0.62050
C         53.84503        42.39380        -0.50446
C         54.98985        44.51190        -1.14109
C         53.80027        43.80768        -0.77018
C         54.95713        45.91527        -1.40633
C         53.63812        46.63007        -1.54763
C         54.90846        48.80135        -1.68662
C         53.72801        48.12238        -1.30313
C         54.91552        50.21553        -1.63791
C         53.78385        50.93018        -1.27217
C         57.60699        24.53896         1.00566
C         56.38857        25.21206         0.73785
C         57.58783        27.35948         0.87303
C         56.38235        26.62676         0.65590
C         57.60173        28.79344         0.85697
C         56.37702        29.50941         0.62203
C         57.57230        31.66569         0.83499
C         56.37444        30.93361         0.54925
C         57.54443        33.09615         0.82859
C         56.39421        33.78921         0.26895
C         57.56886        35.93515        -0.49923
C         56.41848        35.23461        -0.04712
C         57.53477        37.33451        -0.67043
C         56.38243        38.07269        -0.32455
C         57.61534        40.27416        -0.84515
C         56.38756        39.55801        -0.31663
C         57.48522        41.68105        -1.26020
C         56.26991        42.37287        -1.04595
C         57.40255        44.45369        -1.72606
C         56.22041        43.78060        -1.29978
C         57.40200        45.92032        -1.78829
C         56.12293        46.63671        -1.73425
C         57.18630        48.63666        -2.72701
C         56.09377        48.03015        -2.02820
C         58.78526        25.23888         1.18739
C         59.99831        27.39479         1.35967
C         58.79972        26.65577         1.13620
C         59.99016        28.76969         1.37143
C         58.78937        29.50587         1.13945
C         59.85037        31.68662         1.71999
C         58.75555        30.95598         1.21754
C         59.76234        33.06371         1.89949
C         58.62442        33.76298         1.46848
C         60.08213        36.04691        -0.70006
C         58.84182        35.23264        -0.86542
C         60.02102        37.37321        -0.88635
C         58.71664        37.97686        -1.37324
C         59.74081        40.14215        -2.05468
C         58.72893        39.48545        -1.38348
C         59.73398        41.54041        -2.21810
C         58.60816        42.31917        -1.86694
C         59.61674        44.41346        -2.82225
C         58.56203        43.74308        -2.09833
C         59.59433        45.74394        -3.10751
C         58.58912        46.62636        -2.51643
C         58.31942        47.95062        -3.07266
O         46.00324        48.27944         1.77823
O         29.98684        46.38111        -1.26391
O         27.59598        28.91581        -2.33987
O         31.95445        35.39611         2.06407
O         44.72978        42.22030         1.43000
O         28.43902        32.56163        -2.32999
O         39.30147        18.29579         1.55535
O         25.09397        31.22771        -3.02312
O         38.99445        30.23712        -1.25474
O         45.69826        46.75844        -1.43607
O         51.97504        24.82062        -1.45550
O         50.95894        42.23210         1.61963
O         41.97532        42.00935        -1.16266
O         49.77135        33.15028        -1.46632
O         53.99150        34.66814        -1.44746
O         41.65313        17.06278         1.71729
O         42.77327        54.29245         1.86171
O         34.91920        21.01915        -2.28316
O         38.14596        22.59560         1.64835
O         52.06585        29.10048         1.92604
O         34.68580        29.19229         2.06032
O         48.71294        33.32596         2.01510
O         45.79276        44.26669        -1.70402
O         34.73412        24.34855         1.74882
O         30.23653        23.55301         1.51526
O         43.15788        20.48241        -1.43416
O         27.45555        35.33059         1.40164
O         35.32142        36.58804         2.40532
O         58.87886        34.08318        -1.28553
O         52.53764        32.14093        -1.38373
O         37.09154        50.76271         2.82641
O         42.10466        26.98094         1.92901
O         40.31269        53.30737        -0.70165
O         39.86045        48.39750         2.77423
O         57.37255        40.09364         0.62814
O         24.63294        46.24202         1.40256
O         51.13958        48.51859         1.06183
O         24.70044        29.49763         0.06002
O         58.49302        46.55232        -1.06129
O         51.57648        34.29030         1.50606
O         54.12367        38.25677         1.93677
H         54.90162        38.82566         2.12086
O         58.54927        35.09992         1.72655
H         59.34274        35.38312         2.22284
O         41.17538        55.47645        -2.35143
H         40.70717        54.64474        -2.10939
O         53.28424        46.50798        -2.98402
H         54.00249        46.93961        -3.49484
O         58.60642        37.59773        -2.78563
H         58.57813        36.61760        -2.83727
O         33.92858        26.67616         2.50395
H         34.44933        25.91665         2.85547
O         47.67199        24.16930         1.99807
H         47.67511        25.04592         2.43856
O         48.84425        44.07236         1.90578
H         49.61603        43.57944         2.27576
O         27.20031        39.61372        -2.35549
H         27.23848        40.55938        -2.61524
O         45.21323        37.19726        -1.46963
H         45.23086        38.10383        -1.84487
O         54.51565        25.24753        -1.59749
H         53.70805        25.35596        -2.15243
O         46.19505        33.75805         2.65460
H         47.08395        33.70376         3.07383
O         46.44162        41.86049        -1.84248
H         46.05132        42.59917        -2.37138
O         46.41591        22.58465        -2.01578
H         47.17193        22.06096        -2.38582
O         44.44533        56.55929         1.55232
H         44.30564        56.03075         2.36738
O         37.95877        44.30766         2.98219
H         37.30507        44.91432         3.39200
O         48.80765        21.11391        -2.29176
H         49.59574        21.61250        -2.59770
O         47.86141        36.12044         2.45950
H         48.28479        35.28939         2.77570
O         27.27739        37.74368         1.54906
H         27.19565        36.83170         1.98972
O         33.84427        43.77275         2.81886
H         34.54844        43.20770         3.20435
H         22.15285        26.83134        -1.62810
H         22.14599        29.24968        -2.06303
H         22.13102        31.34346        -1.55675
H         22.23516        33.76890        -1.72986
H         22.41200        35.62218        -2.40869
H         22.38729        38.04957        -2.13571
H         22.18064        39.78869        -1.20999
H         22.12662        42.19125        -0.80514
H         22.16910        44.08503        -0.91981
H         22.11903        46.50817        -0.73820
H         25.26531        23.54196        -0.26915
H         23.23856        24.79273        -0.85819
H         25.50721        49.87299        -0.06517
H         23.39682        48.71001        -0.44368
H         26.87875        22.57615        -0.37345
H         27.04646        50.76236         0.75801
H         28.90739        21.28425        -0.34917
H         29.15288        51.97818         0.88776
H         32.57818        19.90896        -2.42039
H         30.51657        20.71923        -1.27988
H         32.87048        54.15838         0.69099
H         30.77447        52.93708         0.58502
H         35.21488        18.45508        -2.54192
H         34.50102        55.07415         0.37530
H         36.96156        17.05877        -1.44171
H         36.60263        56.26470         0.18344
H         40.31805        14.75557        -0.25787
H         38.23755        15.95044        -0.46305
H         40.26767        58.12094        -1.17011
H         38.30511        57.24438        -0.04503
H         42.82708        14.80685        -0.37675
H         42.77556        57.64253        -2.20513
H         44.90879        16.07484        -0.35728
H         44.84520        57.18528        -1.07505
H         48.62695        18.24050        -0.27632
H         46.54889        17.01469         0.07501
H         48.53380        55.13408        -0.32490
H         46.45452        56.36192        -0.06822
H         50.26932        19.17616        -0.77567
H         50.13246        54.20678        -0.60237
H         52.28525        20.34133        -0.10533
H         52.19853        52.99763        -0.94722
H         55.81456        22.61381         1.36591
H         53.74214        21.37490         0.96835
H         55.83050        50.76605        -1.89593
H         53.83628        52.02713        -1.27530
H         57.62448        23.44112         1.04751
H         57.05548        49.66091        -3.10485
H         59.72341        24.69930         1.38190
H         60.93479        26.84713         1.53989
H         60.93252        29.30314         1.55511
H         60.76563        31.17264         2.04071
H         60.58744        33.61580         2.37229
H         61.02816        35.53666        -0.46641
H         60.91840        38.00710        -0.81115
H         60.57783        39.56380        -2.47111
H         60.60697        42.00928        -2.68878
H         60.42093        43.80530        -3.25793
H         60.32930        46.17406        -3.80387
H         59.04493        48.38950        -3.77296
