         280
 CSIRO Nanostructure Databank - Neutral Graphene Oxide Data Set
C         30.75879        31.71167         2.34098
C         30.82751        32.93841         2.10822
C         30.78831        36.09329         1.65424
C         30.42756        37.22009         1.27134
C         30.37118        40.04264        -0.51367
C         30.47865        41.13705        -1.14438
C         33.01134        28.84651         1.45374
C         32.00443        29.36935         1.96812
C         33.13289        31.53720         1.73331
C         31.72380        30.81161         1.60434
C         33.17928        33.06581         1.78032
C         31.89801        33.84110         1.83897
C         33.16937        35.92058         1.39891
C         31.92045        35.21077         1.69785
C         33.24839        37.34076         1.35373
C         31.24908        38.39995         1.16543
C         32.79244        40.03767        -0.10243
C         31.40442        39.37399         0.21670
C         32.72964        41.55661         0.10117
C         31.33388        42.22346        -1.01530
C         32.71374        44.29730        -0.90011
C         31.73639        43.45991        -1.20975
C         35.37502        27.29603        -0.15794
C         35.18525        28.67842         0.15351
C         34.24961        29.31632         0.91100
C         35.36419        31.58926         0.42409
C         34.34315        30.79326         1.23538
C         35.70537        32.99775         1.01436
C         34.44217        33.79401         1.36940
C         35.46849        35.91012         0.45857
C         34.35242        35.23077         1.00588
C         35.43454        37.33802         0.26899
C         34.25711        38.01801         0.68558
C         35.34585        40.26963         0.26514
C         34.09707        39.49292         0.55198
C         35.19839        41.68455        -0.18880
C         33.97986        42.32217        -0.21434
C         35.13458        44.52723        -0.01053
C         33.89480        43.78388        -0.40507
C         35.27621        46.00035        -0.21889
C         37.58222        27.16112        -1.11496
C         36.26479        26.64023        -0.71344
C         37.58735        28.69166        -0.99204
C         36.38213        29.41182        -0.41172
C         37.69439        31.51079        -0.58088
C         36.65869        30.75549         0.24762
C         37.70221        33.00226        -0.60904
C         36.64845        33.76541         0.10343
C         37.81648        35.86841        -0.43752
C         36.63517        35.14645         0.02166
C         37.69709        37.33928        -0.83030
C         36.55735        38.09152        -0.18079
C         37.74152        40.25318        -0.49325
C         36.60085        39.52518        -0.11206
C         37.77653        41.71535        -0.31974
C         36.46192        42.46610        -0.22051
C         37.69396        44.70207        -0.84627
C         36.35428        43.86840        -0.80627
C         37.72077        45.98309         0.09929
C         36.35558        46.57903        -0.06547
C         39.93209        24.68363         0.37689
C         39.01062        25.02777        -0.41261
C         40.20365        27.12102        -0.81588
C         38.85918        26.39307        -0.92710
C         40.19600        28.62025        -1.05700
C         38.91749        29.39937        -0.92998
C         40.20900        31.51820        -0.39184
C         38.95722        30.75739        -0.81671
C         40.24087        32.98982        -0.74339
C         38.97001        33.72485        -1.06489
C         40.26854        35.87017        -0.80663
C         38.99709        35.19001        -0.66687
C         40.23175        37.32387        -1.06617
C         39.01461        38.12366        -0.62531
C         40.25571        40.34238        -1.19728
C         38.90125        39.56934        -1.22023
C         40.27835        41.88544        -1.05699
C         38.97811        42.52380        -0.62931
C         40.25821        44.64296        -0.56974
C         38.95900        43.88766        -0.60396
C         40.26853        46.15859        -0.32159
C         38.87692        46.91375        -0.23552
C         40.10379        48.54606         1.23241
C         39.11478        47.94218         0.81494
C         42.26825        24.94902         1.53655
C         41.21682        25.17583         0.62160
C         42.52306        27.41815         0.29162
C         41.43644        26.49709        -0.09616
C         42.80869        28.55592        -0.69900
C         41.51267        29.35109        -0.99864
C         42.71891        31.55512        -0.19797
C         41.52976        30.89098        -0.92545
C         42.78259        33.02321        -0.56592
C         41.52961        33.70252        -1.08593
C         42.74716        35.90291        -0.73342
C         41.48437        35.19484        -0.81231
C         42.74280        37.29687        -0.72095
C         41.55091        38.05867        -1.11173
C         42.80243        40.25792        -0.63448
C         41.55619        39.57480        -1.08537
C         42.80877        41.78624        -0.66323
C         41.44492        42.37201        -0.16981
C         42.57918        44.55008         0.32273
C         41.47596        43.89912        -0.15953
C         42.58986        45.99450         0.57652
C         41.48594        46.78599         0.27596
C         42.66094        48.75916         1.29303
C         41.43073        48.33740         0.52849
C         43.26468        25.67879         1.72244
C         45.01749        27.34867         0.82248
C         43.60202        27.08393         1.33930
C         45.18660        28.66722         0.06256
C         43.97223        29.42805        -0.26658
C         45.24367        31.56782        -0.28047
C         44.01213        30.79711        -0.34711
C         45.22224        32.94433        -0.27105
C         43.97404        33.69873        -0.45970
C         45.20929        35.85788        -0.46937
C         44.01200        35.17167        -0.56880
C         45.23332        37.31028        -0.19056
C         43.90977        38.04677        -0.24992
C         45.18073        40.15942         0.11850
C         43.90173        39.52728        -0.30605
C         45.16907        41.63205         0.32072
C         43.91087        42.37745         0.15304
C         45.08705        44.50787         0.63640
C         43.75917        43.72311         0.82285
C         45.00027        45.88803         1.30940
C         43.79713        46.57198         1.20503
C         43.55481        47.93296         1.52144
C         47.31097        27.49200         1.10608
C         46.22775        27.00141         1.65626
C         47.67501        28.66474         0.50787
C         46.40565        29.51119         0.42329
C         47.80487        31.48357        -0.07681
C         46.52878        30.75989        -0.45448
C         47.76167        32.97784         0.15263
C         46.53378        33.68591        -0.49108
C         47.78821        35.89141        -0.26148
C         46.46820        35.15327        -0.01307
C         47.78580        37.35828        -0.31986
C         46.51271        38.08050        -0.28307
C         47.68821        40.27847        -0.30645
C         46.46383        39.45427        -0.17568
C         47.73208        41.64305         0.28094
C         46.44964        42.43660         0.14600
C         47.65396        44.41391         1.19589
C         46.31742        43.65434         1.07523
C         47.38341        45.70394         1.58113
C         46.26912        46.33551         1.69338
C         50.17067        28.83238         0.84003
C         48.97297        29.24001         0.02309
C         50.29405        31.49549         0.25109
C         48.94144        30.79497         0.18421
C         50.26848        33.01895         0.22317
C         49.05107        33.65125        -0.44752
C         50.25748        35.86560        -0.09486
C         48.96689        35.17356        -0.27344
C         50.26082        37.38371        -0.12165
C         48.98331        38.07543        -0.36247
C         50.25107        40.33008        -0.17894
C         49.01508        39.54891        -0.48362
C         50.18632        41.64310         0.20557
C         48.92040        42.27882         0.55419
C         50.18934        44.21752         1.29507
C         48.86293        43.56404         1.45307
C         51.18210        29.44879         1.17917
C         52.57942        31.68146         1.09045
C         51.29359        30.92597         1.38206
C         52.53023        32.88027         0.76585
C         51.45484        33.70147         0.25536
C         52.64593        36.00097         0.04827
C         51.54800        35.05365        -0.38071
C         52.67651        37.21850        -0.14162
C         51.55757        38.12179        -0.41962
C         52.68257        40.48956        -0.13117
C         51.55268        39.61231        -0.42979
C         52.66984        41.63737         0.33762
C         51.63110        42.65765         0.05841
C         51.28024        43.73191         0.99790
O         34.13013        31.01849         2.65590
O         45.30993        27.37244        -0.57386
O         34.10925        33.57844         2.78816
O         37.22608        42.23148         0.97604
O         41.20652        26.40545        -1.55315
O         45.17131        40.71752         1.49752
O         40.86438        37.61317        -2.33721
O         36.58333        29.34796        -1.84136
O         51.56784        38.84559        -1.66321
O         50.30516        36.64376         1.14266
O         38.27170        26.61105        -2.23600
O         48.30565        40.13127        -1.63399
O         34.76917        40.17557         1.63786
O         32.35716        38.19787         2.02144
O         44.46292        37.58720         1.04681
O         40.93217        28.93838        -2.28089
O         41.05413        40.04444        -2.38518
O         37.13750        32.19427        -1.75146
O         40.47650        45.61187        -1.66016
O         49.19720        33.30347        -1.79739
O         35.89540        43.65542        -2.13900
H         36.32313        44.33405        -2.71471
O         47.81139        33.10398         1.57148
H         47.50223        33.99876         1.85125
O         41.65734        33.75047        -2.55593
H         40.74970        33.91421        -2.91610
O         39.18960        38.32787         0.79799
H         39.03009        37.48212         1.26713
O         43.45918        43.47329         2.22223
H         44.26362        43.06468         2.63193
O         36.44495        32.81196         2.24926
H         35.76868        32.81093         2.97553
O         33.04522        39.76627        -1.49357
H         32.24551        40.00565        -2.01213
O         46.28573        35.16785         1.44425
H         45.99390        36.06749         1.71312
O         40.46834        42.44389        -2.37204
H         41.18067        41.92336        -2.81749
O         46.04732        43.17073         2.40633
H         46.89834        42.89409         2.82743
O         37.81327        45.17134        -2.19761
H         38.73467        45.50324        -2.34579
O         38.53501        39.51900        -2.61449
H         39.37459        39.39530        -3.12239
O         34.70480        31.77436        -0.83658
H         35.39145        31.96080        -1.52779
O         46.60411        30.35288        -1.82812
H         46.64995        31.15954        -2.38490
O         41.36529        48.97902        -0.71957
H         41.35349        49.94888        -0.58212
O         37.20918        30.41500         1.52527
H         37.23201        31.23930         2.07841
O         49.16562        28.92518        -1.34239
H         49.95203        29.44124        -1.64041
O         50.81629        31.28263         2.64200
H         51.39344        30.90287         3.33451
O         37.87786        45.56238         1.43640
H         37.08361        45.02636         1.69184
O         37.35393        37.23158        -2.23304
H         37.52516        38.10908        -2.66362
O         43.05701        42.17156        -2.05061
H         43.24919        43.13475        -2.07070
O         32.25096        41.84588         1.35547
H         32.43675        42.78069         1.57994
O         46.52119        42.87785        -1.23077
H         46.86785        42.14238        -1.78135
O         38.65046        47.56470        -1.46744
H         39.39436        48.18563        -1.62819
O         41.22258        41.89172         1.16450
H         41.88058        42.32165         1.76514
O         40.02901        31.43020         1.05626
H         40.85626        31.73919         1.50272
O         48.74248        43.06579         2.80566
H         49.60354        42.68166         3.07688
O         46.66917        33.69173        -1.92259
H         47.64059        33.60116        -2.17326
O         41.67545        31.31770        -2.28541
H         41.29278        30.62774        -2.87458
O         42.54316        31.50999         1.26642
H         43.38821        31.80326         1.67216
O         35.37898        44.29406         1.39160
H         34.68841        44.75818         1.90940
O         38.93051        33.81052        -2.53479
H         38.30249        33.11121        -2.84355
O         51.63475        34.88254        -1.78525
H         52.14041        34.06898        -1.98814
O         46.14959        30.02015         1.75324
H         46.07574        29.25842         2.37086
O         43.27310        27.99764        -1.94120
H         42.52698        27.49615        -2.34830
O         31.38300        30.85169         0.24088
H         30.51940        30.41121         0.10364
O         51.69337        43.12984        -1.23375
H         52.03465        42.43671        -1.83420
O         43.48391        27.95623         2.47920
H         42.64417        27.76240         2.94529
O         50.86584        31.16069        -1.04609
H         50.41757        31.77891        -1.68543
O         45.12449        44.81074        -0.76527
H         45.99658        45.19893        -0.98820
