         324
 CSIRO Nanostructure Databank - Neutral Graphene Oxide Data Set
C          1.40244         1.88827        -0.52404
C          1.35122         3.30827        -0.39696
C          2.57846         1.18352        -0.44418
C          2.48029         4.04815        -0.08405
C          1.30213         6.23512         0.15064
C          1.27480         7.65040         0.12404
C          2.47583         5.49156         0.09613
C          2.41837         8.43232         0.00474
C          1.19222        10.59468         0.04036
C          1.18425        11.97158         0.15927
C          2.40415         9.87976        -0.10014
C          2.38266        12.72195         0.11867
C          1.23171        14.85364         0.72324
C          1.26495        16.25982         1.00313
C          2.36645        14.15124         0.38749
C          2.45162        16.93744         1.15811
C          2.50709        18.34750         1.42016
C          3.83340         1.85975        -0.24254
C          3.74835         3.30789         0.09243
C          5.04023         1.20083        -0.34279
C          5.04846         4.11608         0.03664
C          3.75460         6.23189         0.18266
C          3.72618         7.76890         0.10638
C          4.99356         5.54397        -0.18288
C          4.91502         8.51680        -0.35733
C          3.62056        10.61694        -0.24748
C          3.60501        12.03939        -0.15321
C          4.85936         9.88468        -0.48211
C          4.85847        12.79463        -0.16452
C          3.63939        14.94813         0.20383
C          3.73888        16.13564         1.16424
C          4.89488        14.11018         0.22524
C          4.97897        16.95850         0.87969
C          3.68816        19.03733         1.40237
C          4.94773        18.40392         1.08962
C          6.32127         1.92097        -0.50626
C          6.28308         3.41075        -0.41126
C          7.63516         1.25037        -0.43719
C          7.54010         4.19396        -0.22715
C          6.16872         6.25676        -0.68865
C          6.13393         7.78690        -0.77697
C          7.48933         5.62203        -0.59724
C          7.43149         8.50310        -0.80737
C          6.07898        10.61091        -0.91288
C          6.08122        12.13657        -0.68738
C          7.38620         9.94121        -0.91824
C          7.37259        12.80352        -0.61563
C          6.16739        14.84497         0.40161
C          6.13918        16.32718         0.54417
C          7.42597        14.18208        -0.08834
C          7.48144        17.04598         0.61169
C          6.09499        19.15605         0.93261
C          7.35749        18.56582         0.57453
C          8.82503         1.95905        -0.41707
C          8.81942         3.44960        -0.29198
C         10.11009         1.34753        -0.39447
C         10.02620         4.18813        -0.82252
C          8.67249         6.35460        -0.74043
C          8.62738         7.79984        -0.85132
C          9.94502         5.68443        -0.64161
C          9.92460         8.51658        -1.14661
C          8.57731        10.69092        -1.02004
C          8.56468        12.13947        -0.92409
C          9.84598        10.01880        -0.95745
C          9.81406        12.87284        -1.00952
C          8.49651        15.04900        -0.67123
C          8.47352        16.52188        -0.44314
C          9.75894        14.36066        -1.11947
C          9.75561        17.30026        -0.60844
C          8.47380        19.32530         0.36850
C          9.75144        18.74319        -0.10819
C         11.30167         2.10451        -0.24847
C         11.27805         3.53583        -0.29908
C         12.55479         1.45970        -0.02904
C         12.40486         4.30526         0.03956
C         11.13056         6.41417        -0.41427
C         11.12599         7.85601        -0.49612
C         12.31661         5.73056         0.00160
C         12.26665         8.59917        -0.20524
C         11.01597        10.75263        -0.82997
C         11.02504        12.18926        -0.97165
C         12.22173        10.07358        -0.29728
C         12.33167        12.90692        -1.10391
C         11.04255        15.16159        -1.07507
C         11.04437        16.57799        -0.63402
C         12.34641        14.41972        -1.07144
C         12.23426        17.25188        -0.41801
C         11.03191        19.29957         0.29992
C         12.22747        18.63473         0.04783
C         13.71945         2.19003         0.22356
C         13.66001         3.63282         0.33117
C         14.98047         1.53913         0.40008
C         14.82450         4.35144         0.61407
C         13.43124         6.52963         0.50666
C         13.48144         7.96982         0.22409
C         14.74445         5.80555         0.82716
C         14.70828         8.66572         0.33006
C         13.49789        10.83307        -0.13722
C         13.64695        12.14991        -0.87797
C         14.74841        10.06609         0.07363
C         14.73517        12.99851        -0.25217
C         13.55796        15.15879        -0.64345
C         13.52291        16.56297        -0.47606
C         14.74848        14.41772        -0.35010
C         14.73803        17.30374        -0.34107
C         13.46964        19.27894         0.32629
C         14.71638        18.70452         0.05024
C         16.14917         2.25359         0.63634
C         16.10024         3.69729         0.74629
C         17.41385         1.59876         0.82119
C         17.26664         4.41929         1.03206
C         15.98087         6.59572         0.79606
C         15.96103         7.97312         0.61601
C         17.20846         5.88607         1.17441
C         17.22306         8.69044         0.49295
C         15.95109        10.77682         0.10434
C         15.89903        12.24862         0.19236
C         17.20079        10.10505         0.22152
C         17.26957        12.98961         0.20076
C         15.96005        15.16097        -0.21448
C         15.96881        16.56151        -0.44251
C         17.24039        14.46465        -0.01257
C         17.18364        17.18135        -0.88755
C         15.89332        19.48110         0.38024
C         17.14964        19.28519        -0.19398
C         18.57476         2.30240         1.06638
C         18.54812         3.76221         1.14174
C         19.82666         1.60140         1.29413
C         19.73375         4.47278         1.29081
C         18.51907         6.68285         1.20350
C         18.44847         8.01720         0.62062
C         19.86714         5.98266         1.37855
C         19.67480         8.59837         0.05426
C         18.41751        10.82547         0.01786
C         18.44884        12.21150        -0.12720
C         19.64800        10.06253        -0.26482
C         19.62905        12.85764        -0.76537
C         18.49326        15.14388        -0.44250
C         18.41488        16.51371        -0.96510
C         19.65554        14.35193        -0.92572
C         19.64890        17.17001        -1.16234
C         18.42083        19.69389         0.27247
C         19.64860        19.20686        -0.25519
C         20.99027         2.27313         1.48608
C         21.00067         3.74451         1.41064
C         22.29860         1.63005         1.88917
C         22.23672         4.39768         0.80605
C         20.99709         6.53691         0.51193
C         20.97809         7.88445         0.12332
C         22.16914         5.78489         0.26791
C         22.16311         8.51449        -0.33809
C         20.95157        10.79265        -0.26759
C         20.93691        12.19318        -0.70881
C         22.22288         9.99229        -0.38232
C         22.12511        12.87134        -0.93382
C         20.94315        15.05594        -1.02752
C         20.91202        16.52170        -0.98255
C         22.11112        14.32416        -1.10285
C         22.08578        17.24697        -0.68914
C         20.90080        19.27677         0.34714
C         22.08589        18.54476        -0.05343
C         23.47566         2.18341         1.09047
C         23.30909         3.46971         0.35172
C         24.61005         1.47248         0.95455
C         24.46409         4.05741        -0.40395
C         23.28631         6.36591        -0.36662
C         23.33941         7.77504        -0.59811
C         24.41606         5.50364        -0.91150
C         24.57117         8.45082        -1.06491
C         23.42519        10.67665        -0.88572
C         23.38309        12.11369        -0.95806
C         24.59117         9.92097        -1.19119
C         24.59313        12.82190        -1.02658
C         23.37564        15.07816        -1.28164
C         23.41126        16.61420        -1.09131
C         24.64097        14.29752        -1.14866
C         24.60836        17.06465        -0.27974
C         23.31176        19.03907         0.43344
C         24.55528        18.34118         0.34483
C         25.74871         1.88040         0.03503
C         25.76605         3.37939        -0.21224
C         27.05758         1.34965         0.56388
C         26.92012         4.10813        -0.24431
C         25.72998         6.22436        -0.77639
C         25.72796         7.63421        -1.17001
C         26.89686         5.54022        -0.52180
C         26.98552         8.05478        -1.72036
C         25.79618        10.71116        -1.41551
C         25.81498        12.11925        -1.12313
C         27.01111        10.22456        -1.94733
C         27.05102        12.83745        -1.00825
C         25.87578        14.98326        -0.72243
C         25.83284        16.34232        -0.29812
C         27.06279        14.23684        -0.65888
C         27.04753        16.94919         0.16946
C         25.71825        18.88589         0.92946
C         26.98172        18.24810         0.81449
C         28.22110         2.04972         0.50715
C         28.22689         3.40646        -0.09709
C         29.48063         1.52111         1.00140
C         29.50827         4.17020        -0.07415
C         28.17275         6.30282        -0.48475
C         28.20865         7.50490        -1.33670
C         29.48329         5.65439        -0.18816
C         29.47846         8.01548        -1.72531
C         28.25741        10.85876        -1.73274
C         28.27852        12.16719        -1.15746
C         29.50506        10.21423        -1.96640
C         29.52939        12.78696        -0.82299
C         28.28989        14.86510        -0.28928
C         28.26364        16.23176         0.09617
C         29.52939        14.12952        -0.33347
C         29.53531        16.89489         0.40551
C         28.11794        18.80639         1.41815
C         29.45013        18.29413         1.14461
C         30.65262         2.22733         0.99272
C         30.73841         3.57370         0.49274
C         31.89420         4.32891         0.43092
C         30.77508         6.30515        -0.54077
C         30.71861         7.59559        -1.20659
C         31.92463         5.63298        -0.16347
C         31.87470         8.44529        -1.34497
C         30.71968        10.68692        -1.45803
C         30.74336        12.04067        -0.91704
C         31.87609         9.82148        -1.43802
C         31.93163        12.65550        -0.46197
C         30.74785        14.72115         0.10744
C         30.75451        16.09553         0.59521
C         31.92941        13.95006         0.03987
C         31.84514        16.67716         1.21765
C         30.59717        18.64753         1.97577
C         31.75366        17.92200         1.91373
O          8.31588         3.90577         1.00054
O         16.56725        12.67020         1.42834
O         29.05884         3.50486        -1.31304
O         23.42522         3.26041        -1.10502
O          4.48066         3.65527         1.30988
O         19.31753        13.49439        -2.06870
O         17.74337         6.46818         2.42598
O         29.50802         9.02190        -2.71168
O         29.74228        18.15260        -0.28312
O         13.81866         6.19318         1.89191
O         19.62321        18.51152        -1.50229
O          5.90800         6.96921        -1.97313
O          3.92372         7.07516         1.38918
O         10.30774        14.94290        -2.32924
O         19.48257         9.09636        -1.34745
O         21.76892        10.56423         0.92461
O         12.58662        10.76417         0.98598
O         22.04792         4.34970         2.24871
O          9.69434        18.40025        -1.55717
O         24.11711        14.70478        -2.49747
O         18.16537        15.08947         0.98270
O          7.14216        14.23499         1.34051
O         26.97044         9.04891        -2.70660
O          6.20128         2.82823        -1.74287
O         12.49351        13.68195        -2.34150
O         28.76127         6.38545         0.87302
O         17.13160        18.47223        -1.37011
O          7.92000        15.97560        -1.66620
O          5.84398        11.53011        -2.01481
O          8.05405        16.77416         1.87080
O          3.88618        15.58333         2.50013
H          4.30254        16.26145         3.07166
O          3.59710        15.51617        -1.14024
H          3.51574        14.78065        -1.78320
O         20.29565         6.29888         2.73170
H         19.50145         6.20868         3.30650
O         10.00332         3.95040        -2.27397
H         10.70529         4.49987        -2.68211
O         23.61702        17.19698        -2.41794
H         24.05190        16.49408        -2.96163
O         24.17519         5.42847        -2.34733
H         23.55403         4.67877        -2.49173
O         10.15282         8.32084        -2.59258
H          9.35879         8.65311        -3.06415
O         22.24767         0.21180         1.78122
H         22.22302        -0.02976         0.83297
O         14.14068        11.74335        -2.18842
H         13.89891        12.47024        -2.81158
O         25.47992         1.23317        -1.24368
H         24.67966         1.67358        -1.61235
H          0.46436         1.35177        -0.72378
H          0.38188         3.80696        -0.53501
H          2.58465         0.09474        -0.59679
H          0.33477         5.71334         0.16776
H          0.28520         8.12716         0.12819
H          0.23963        10.05376         0.11172
H          0.22366        12.47992         0.31454
H          0.25347        14.35371         0.77139
H          0.30965        16.79721         1.10274
H          1.56144        18.88580         1.58806
H          5.04005         0.11121        -0.50269
H          3.68862        20.12379         1.57629
H          7.65787         0.14990        -0.45212
H          6.04465        20.25097         1.04364
H         10.17931         0.24920        -0.40782
H          8.41871        20.42182         0.46339
H         12.60106         0.36070        -0.05293
H         11.05143        20.26454         0.82886
H         15.02102         0.44144         0.33677
H         13.43745        20.30769         0.71642
H         17.44790         0.50014         0.77048
H         15.76688        20.29071         1.11462
H         19.81128         0.50254         1.35201
H         18.46503        20.27440         1.20479
H         22.46307         1.86877         2.97589
H         21.01937        19.96111         1.20082
H         24.68221         0.48717         1.44213
H         23.30519        19.99797         0.97363
H         27.05133         0.33358         0.98859
H         25.65659        19.85798         1.44080
H         29.47275         0.49571         1.40023
H         28.00374        19.65725         2.10655
H         31.56926         1.75863         1.38110
H         32.84052         3.90109         0.79344
H         32.90875         6.09523        -0.32582
H         32.85633         7.97065        -1.19031
H         32.86030        10.30732        -1.35119
H         32.88407        12.11085        -0.51003
H         32.88299        14.38562         0.36794
H         32.78501        16.11612         1.31369
H         30.50294        19.49206         2.67388
H         32.62169        18.23940         2.50910
