         404
 CSIRO Nanostructure Databank - Neutral Graphene Oxide Data Set
C          1.23418         2.03409        -0.04186
C          1.25732         3.38385         0.45399
C          2.37380         1.30992        -0.18948
C          2.42394         4.03170         0.75687
C          1.30435         6.31833         1.12597
C          1.40366         7.64411         1.43185
C          2.45622         5.43228         1.24550
C          2.66226         8.30090         1.65813
C          1.53058        10.36605         2.47956
C          1.63023        11.63987         3.03001
C          2.69253         9.72107         2.00457
C          2.84143        12.33102         2.96669
C          1.73176        15.46753         3.12762
C          1.62461        16.67309         2.46030
C          2.86723        14.65890         2.92402
C          2.72434        17.14524         1.71131
C          2.69056        18.48375         1.19175
C          3.66570         1.84018         0.26040
C          3.71163         3.30151         0.74928
C          4.90397         1.25632        -0.24963
C          4.98148         4.05300         0.56482
C          3.83336         6.13516         1.34263
C          3.85271         7.60197         1.41959
C          5.02842         5.44358         0.82721
C          5.11917         8.27116         1.34237
C          3.91991        10.42217         1.99239
C          4.00177        11.81021         2.33309
C          5.16468         9.67037         1.80132
C          5.17360        12.60754         2.02808
C          3.91301        14.99187         2.05272
C          3.89032        16.33562         1.54962
C          5.05123        14.07948         1.70162
C          5.08137        16.96670         1.04578
C          3.81883        19.07306         0.70213
C          5.06143        18.35457         0.69830
C          6.09768         1.96157        -0.23822
C          6.13046         3.38672         0.08194
C          7.31374         1.29979        -0.57899
C          7.31223         4.13461        -0.19919
C          6.20914         6.19370         0.59155
C          6.27562         7.61599         0.91026
C          7.33112         5.53163         0.03849
C          7.52849         8.35732         0.76961
C          6.45902        10.44261         1.70606
C          6.39472        11.94011         1.65847
C          7.60490         9.70392         1.12482
C          7.57188        12.62558         1.33570
C          6.30636        14.79221         1.22709
C          6.31330        16.26677         1.04043
C          7.63815        14.12894         1.53111
C          7.50889        16.93464         0.72052
C          6.26266        19.01925         0.40665
C          7.49171        18.33921         0.44001
C          8.51912         1.99739        -0.70610
C          8.50738         3.44804        -0.64448
C          9.74341         1.31156        -0.89960
C          9.67713         4.14462        -0.94762
C          8.46719         6.34695        -0.42219
C          8.66982         7.71215         0.12318
C          9.66929         5.61557        -1.00105
C          9.87739         8.35928        -0.08724
C          8.89769        10.40489         1.12386
C          8.86702        11.90268         1.27108
C         10.08891         9.71579         0.45436
C         10.12068        12.64857         0.90038
C          8.77999        14.82549         0.81141
C          8.75005        16.19326         0.56527
C          9.96167        14.05984         0.42655
C          9.96633        16.93338         0.26475
C          8.71175        19.04325         0.19191
C          9.93674        18.38938         0.16115
C         10.96339         2.00157        -1.03492
C         10.92334         3.45639        -1.12286
C         12.18968         1.30941        -1.10735
C         12.09367         4.17862        -1.36552
C         10.94486         6.33439        -1.12555
C         11.00535         7.75326        -0.80506
C         12.08929         5.61248        -1.43420
C         12.18963         8.43495        -1.01656
C         11.20640        10.51797        -0.05962
C         11.33905        11.89576         0.42200
C         12.47925         9.76868        -0.38153
C         12.54787        12.67451         0.00254
C         11.22567        14.84264         0.04603
C         11.18315        16.28752         0.16574
C         12.52728        14.15936         0.02099
C         12.47359        17.02966         0.38888
C         11.15554        19.10368        -0.06455
C         12.40291        18.47619        -0.03810
C         13.43302         1.98963        -1.25534
C         13.39292         3.47543        -1.25363
C         14.63469         1.32936        -1.39393
C         14.65678         4.21960        -1.49547
C         13.29153         6.33969        -1.92535
C         13.17096         7.86683        -2.01203
C         14.61152         5.61935        -2.00640
C         14.54633         8.56421        -2.09218
C         13.56226        10.58542        -1.08066
C         13.50883        12.09202        -1.01949
C         14.64715         9.99377        -1.67385
C         14.88285        12.71284        -0.83944
C         13.68220        14.87456        -0.18079
C         13.69748        16.31139        -0.13294
C         14.95448        14.16140        -0.43808
C         14.88059        17.01364        -0.30449
C         13.62064        19.15624        -0.22929
C         14.86258        18.46754        -0.26834
C         15.92782         1.99831        -1.78406
C         15.93159         3.49517        -1.63085
C         17.13725         1.39222        -1.14285
C         17.10170         4.22766        -1.55750
C         15.89738         6.34478        -2.03064
C         15.83256         7.79339        -2.28619
C         17.09025         5.68414        -1.73488
C         17.12532         8.54233        -2.30529
C         15.92909        10.70561        -1.88826
C         16.02173        12.11954        -1.56232
C         17.09699        10.00216        -2.14964
C         17.19088        12.86031        -1.68564
C         16.14952        14.94055        -0.80431
C         16.13830        16.34366        -0.59529
C         17.28337        14.26545        -1.31546
C         17.36969        17.05402        -0.58761
C         16.08456        19.14994        -0.29488
C         17.34986        18.49787        -0.28689
C         18.30626         2.13093        -0.96676
C         18.34479         3.55826        -1.25154
C         19.49757         1.50393        -0.51125
C         19.52885         4.29244        -1.08137
C         18.35626         6.37619        -1.67983
C         18.41871         7.79886        -2.06370
C         19.54312         5.72421        -1.31954
C         19.64409         8.57397        -1.78921
C         18.39504        10.68141        -2.33945
C         18.40827        12.20096        -2.17768
C         19.65902         9.95550        -2.04662
C         19.70522        12.87208        -1.99393
C         18.49783        15.00248        -1.50235
C         18.54109        16.33398        -0.98771
C         19.71438        14.30804        -1.93496
C         19.81274        16.94839        -0.66260
C         18.45983        19.35584        -0.07474
C         19.77064        18.92214         0.23562
C         20.70601         2.21535        -0.40321
C         20.73983         3.63077        -0.69524
C         21.89513         1.55936        -0.01606
C         21.95458         4.34623        -0.60396
C         20.78402         6.45381        -1.19861
C         20.82695         7.87428        -1.42269
C         21.98339         5.76864        -0.86253
C         22.05458         8.59279        -1.31957
C         20.88048        10.68082        -1.96356
C         20.87631        12.10954        -2.08828
C         22.10221         9.99301        -1.62202
C         22.15736        12.80142        -2.23247
C         20.93546        14.94756        -2.25738
C         20.96455        17.01811        -1.39590
C         22.18106        14.26112        -2.21009
C         22.18983        17.62638        -0.92384
C         21.00112        19.56660         0.15554
C         22.20847        18.80133        -0.07999
C         23.12055         2.25046         0.04665
C         23.16081         3.66250        -0.25793
C         24.31111         1.57539         0.39120
C         24.39789         4.35026        -0.23339
C         23.21579         6.47575        -0.77049
C         23.25633         7.89740        -0.96911
C         24.43558         5.76819        -0.50454
C         24.47649         8.60688        -0.83507
C         23.34201        10.68283        -1.49439
C         23.46566        12.08738        -1.90916
C         24.51654        10.02460        -1.05462
C         24.63492        12.89447        -1.50102
C         23.42582        14.91164        -2.10435
C         23.41525        17.06958        -1.34474
C         24.62748        14.31866        -1.59135
C         24.65096        17.36150        -0.74900
C         23.47365        19.33244         0.21811
C         24.67017        18.63701        -0.07880
C         25.55256         2.24066         0.39296
C         25.60406         3.64622         0.06106
C         26.74469         1.55195         0.70867
C         26.85619         4.30764         0.01035
C         25.66745         6.44655        -0.52228
C         25.71728         7.88364        -0.67223
C         26.90005         5.72243        -0.31305
C         26.93082         8.56248        -0.69789
C         25.73783        10.76000        -0.93396
C         25.78908        12.16291        -1.10311
C         26.96112        10.04488        -0.42227
C         27.03611        12.89039        -1.00088
C         25.80129        15.09501        -1.15449
C         25.83478        16.51731        -0.84472
C         27.01267        14.32246        -0.98947
C         27.07030        17.14926        -0.44312
C         25.91855        19.27888         0.04458
C         27.10840        18.60434        -0.23803
C         27.99463         2.19731         0.64948
C         28.05628         3.58570         0.26536
C         29.19107         1.51651         0.96690
C         29.33053         4.20081         0.14816
C         28.11686         6.36877        -0.44850
C         28.20637         7.80103        -0.92251
C         29.36275         5.60970        -0.31686
C         29.43480         8.56638        -0.45748
C         28.26010        10.72782        -0.78420
C         28.26637        12.16651        -0.94117
C         29.43274         9.99650        -0.67007
C         29.50303        12.88194        -0.98423
C         28.25787        14.98913        -0.76352
C         28.26648        16.37766        -0.41782
C         29.49103        14.27826        -0.83448
C         29.51209        16.90897         0.04220
C         28.26567        19.43600        -0.45611
C         29.54721        19.01401        -0.09800
C         30.47247         2.10288         0.86565
C         30.53264         3.49791         0.40417
C         31.55114         1.31820         1.38373
C         31.75188         4.26728         0.47377
C         30.61820         6.42589        -0.11300
C         30.60115         7.90626        -0.12662
C         31.70645         5.73794         0.61587
C         31.87251         8.60031         0.04471
C         30.75086        10.63373        -0.86035
C         30.78885        12.14883        -1.07273
C         31.95306         9.97172        -0.32581
C         32.05706        12.81995        -0.73597
C         30.76687        15.04093        -0.85320
C         30.77147        16.41042        -0.30286
C         32.08909        14.28037        -0.81951
C         31.97960        17.16943        -0.11935
C         30.81850        19.37626        -0.55944
C         32.00516        18.62373        -0.30114
C         32.93548         1.58444         1.18693
C         33.01041         3.69675         0.55970
C         34.06175         1.27556         1.91551
C         34.17848         4.35846         1.02093
C         32.99189         6.50719         0.83865
C         33.05069         7.92033         0.42581
C         34.24078         5.75110         0.97605
C         34.31123         8.57687         0.45628
C         33.17004        10.67275        -0.20163
C         33.20255        12.11371        -0.37737
C         34.35957         9.97682         0.18027
C         34.44295        12.81967        -0.12244
C         33.26749        14.99257        -0.31769
C         33.20508        16.39096        -0.04551
C         34.45573        14.26041        -0.10101
C         34.40061        16.96409         0.44029
C         33.21982        19.34607        -0.58090
C         34.45416        19.02726         0.00347
C         35.32649         2.08231         1.78298
C         35.36872         3.57985         1.44719
C         36.60190         1.37710         1.60327
C         36.66545         4.22889         1.14718
C         35.50361         6.42779         0.94727
C         35.52405         7.85766         0.75861
C         36.70040         5.67579         0.98738
C         36.75605         8.55144         0.84075
C         35.59872        10.67588         0.31572
C         35.62269        12.10962         0.16663
C         36.76690         9.96328         0.68567
C         36.88098        12.81377         0.28444
C         35.68931        14.95685         0.12476
C         35.67550        16.37243         0.29275
C         36.91339        14.25696         0.22807
C         36.88613        17.14248         0.34624
C         35.77446        19.35405        -0.32507
C         36.91377        18.57851         0.10647
C         37.78359         2.04128         1.34851
C         37.82155         3.47750         1.15297
C         39.03603         1.30328         1.30029
C         39.11445         4.13090         0.73544
C         37.96634         6.35221         1.01600
C         38.00045         7.81188         1.05103
C         39.15969         5.61068         1.04192
C         39.21521         8.45990         1.17220
C         38.00255        10.71597         0.93584
C         38.05873        12.11465         0.50888
C         39.30678         9.93329         1.18987
C         39.34878        12.81330         0.42474
C         38.12014        14.98418         0.43048
C         38.11419        16.42123         0.43529
C         39.36031        14.28171         0.55485
C         39.36569        17.11031         0.49513
C         38.16408        19.21798         0.09669
C         39.37788        18.53360         0.35174
C         40.24329         1.93691         1.26284
C         40.33894         3.36934         1.17291
C         41.52740         4.04291         1.36385
C         40.42662         6.23541         1.22253
C         40.50234         7.72638         1.46730
C         41.57580         5.46336         1.35437
C         41.67266         8.39089         0.78070
C         40.58696        10.57229         0.88486
C         40.64379        12.03725         0.64406
C         41.70146         9.75307         0.59220
C         41.78910        12.83293         1.09682
C         40.57657        14.95428         0.73723
C         40.59517        16.40456         0.67150
C         41.76196        14.19441         1.06462
C         41.79503        17.14103         0.73554
C         40.61114        19.23077         0.41479
C         41.79626        18.53592         0.61495
O         13.77002         5.78382        -3.20294
O         10.32791        14.25096        -0.97392
O          8.64360         6.22031        -1.87754
O         31.54756        14.84833        -2.07216
O         15.22480        13.07603         0.53122
O         15.05877         8.28871        -3.44032
O          3.75419         2.19206         1.69114
O         32.00366         6.27226         1.93514
O          9.92110         9.76844         1.93913
O         14.15181         4.07236        -0.10598
O         17.93751         8.07737        -3.43576
O         18.36713        11.56885        -3.50220
O         23.43370        16.24656        -2.47813
O          6.04838         9.86260         2.98442
O         33.19095         2.40683         0.06644
O         34.33458        18.16411         1.12905
O         12.54794        12.07269         1.33100
O          5.43057        14.16619         0.25392
O         29.50284        18.00140         0.90066
O          2.91594        13.50745         3.70891
O         40.17728        12.35457        -0.72376
O         23.02164        12.27891        -3.29948
O         38.55769        10.55228         2.30361
O          3.19295         5.52637         2.50650
O         35.33548         3.11321         2.85047
O         30.33864         5.84193        -1.43079
O         19.84488        17.55721         0.60267
O          9.80123        12.43918         2.30209
O         20.96371        16.30369        -2.61507
O         30.91188        11.21851        -2.19591
O         16.05825         1.74610        -3.24976
H         16.91773         2.12350        -3.53654
O         26.89795        10.15178         1.06315
H         26.04182         9.76355         1.34536
O         13.00121        12.53280        -2.31194
H         13.41625        11.99051        -3.01577
O         40.73767         7.87439         2.91456
H         40.55169         8.80898         3.14926
O         28.39053         7.70225        -2.38470
H         29.15685         7.09403        -2.52143
O         39.12021         4.04255        -0.74666
H         39.98124         4.40050        -1.05183
O          7.85466        14.33835         2.96316
H          8.64707        13.80187         3.20873
O         12.52785         8.13614        -3.28729
H         13.11935         7.74574        -3.97306
O         13.10398         9.43978         0.91620
H         13.07562        10.27346         1.45316
O         12.64785        17.05232         1.85417
H         13.46955        17.55434         2.04251
H          0.26961         1.61649        -0.36289
H          0.29854         3.91672         0.52373
H          2.35694         0.33036        -0.68968
H          0.34686         5.91357         0.76938
H          0.49367         8.25773         1.38124
H          0.57240         9.83401         2.52831
H          0.77154        12.10387         3.53163
H          0.94037        15.11370         3.80046
H          0.73209        17.30368         2.57564
H          1.74725        19.04520         1.25680
H          4.88547         0.22578        -0.63553
H          3.80688        20.11680         0.35734
H          7.30258         0.20764        -0.71011
H          6.24322        20.09250         0.16642
H          9.74334         0.21129        -0.89737
H          8.66969        20.13206         0.03807
H         12.18464         0.20974        -1.06969
H         11.09949        20.18534        -0.26324
H         14.63927         0.22828        -1.37106
H         13.61589        20.24837        -0.36717
H         17.14195         0.31369        -0.92474
H         16.07049        20.24775        -0.21353
H         19.48225         0.42889        -0.27872
H         18.26846        20.43921        -0.11966
H         21.86837         0.48373         0.21261
H         21.06419        20.66453         0.14684
H         24.27129         0.50352         0.63513
H         23.54741        20.31280         0.70952
H         26.69572         0.48855         0.98559
H         25.94990        20.34367         0.31592
H         29.11825         0.47196         1.30606
H         28.10270        20.43976        -0.87618
H         31.27258         0.45220         2.00448
H         30.92128        20.31830        -1.11827
H         33.99719         0.61275         2.79142
H         33.14408        20.23549        -1.22438
H         36.60261         0.27711         1.64476
H         35.97127        20.22980        -0.96136
H         38.99145         0.20799         1.39178
H         38.20429        20.30008        -0.09886
H         41.17413         1.35518         1.34436
H         42.44396         3.48007         1.59459
H         42.53981         5.95293         1.54948
H         42.56514         7.79480         0.54282
H         42.61270        10.22653         0.19636
H         42.66822        12.30858         1.49970
H         42.65939        14.74017         1.38815
H         42.75472        16.62374         0.86731
H         40.61857        20.32433         0.30277
H         42.74932        19.08071         0.66521
