         404
 CSIRO Nanostructure Databank - Neutral Graphene Oxide Data Set
C          1.60383         2.82227        -3.00180
C          1.48985         3.99357        -2.22628
C          2.84131         2.24869        -3.18091
C          2.59531         4.56246        -1.59602
C          1.35384         6.76340        -1.29372
C          1.38920         8.09027        -1.03091
C          2.45071         5.86480        -0.89788
C          2.57090         8.75234        -0.51972
C          1.42656        11.00770        -0.66518
C          1.37581        12.30918        -0.32331
C          2.60774        10.18348        -0.40321
C          2.52659        12.94457         0.42012
C          1.49231        15.27567         0.06075
C          1.53531        16.67109         0.18221
C          2.59191        14.46250         0.39131
C          2.61812        17.30502         0.80570
C          2.70493        18.71457         0.97994
C          3.99157         2.78319        -2.52760
C          3.87821         3.93774        -1.67082
C          5.24035         2.19313        -2.78011
C          5.02923         4.43045        -0.94905
C          3.71300         6.51315        -0.34765
C          3.73410         7.99485        -0.26539
C          4.99017         5.74185        -0.34648
C          4.95267         8.65907         0.04571
C          3.79592        10.82823        -0.04246
C          3.84810        12.34419        -0.06135
C          4.98214        10.08159         0.17208
C          5.04009        12.93339         0.66577
C          3.76916        15.04793         0.90438
C          3.70331        16.45645         1.31500
C          4.98889        14.31017         1.06875
C          4.98971        17.14669         1.78983
C          3.86530        19.33820         1.39873
C          5.06167        18.61295         1.68333
C          6.38198         2.59212        -2.05857
C          6.23627         3.61905        -1.04353
C          7.62052         1.94401        -2.27703
C          7.31875         3.72131        -0.15451
C          6.11449         6.44492         0.18760
C          6.14141         7.89545         0.27349
C          7.26386         5.77744         0.69054
C          7.35207         8.57947         0.54620
C          6.21070        10.75413         0.49035
C          6.21448        12.18996         0.76868
C          7.38207        10.00344         0.61386
C          7.41738        12.81165         1.26908
C          6.18130        14.95362         1.53035
C          6.23374        16.36142         1.80054
C          7.39461        14.19479         1.62970
C          7.43270        17.03136         2.09196
C          6.30039        19.22452         1.82961
C          7.49031        18.47168         2.06224
C          8.76818         2.26986        -1.52268
C          8.59729         3.16458        -0.40684
C         10.04991         1.70651        -1.72933
C          9.75138         3.57036         0.31658
C          8.50555         6.40237         0.86886
C          8.57751         7.82807         0.74544
C          9.71835         5.67511         1.11359
C          9.80796         8.43472         0.96989
C          8.71281        10.72182         0.66456
C          8.63528        12.08003         1.30787
C          9.81990         9.88058         1.27434
C          9.78645        12.65360         1.87030
C          8.56149        14.79283         2.19740
C          8.63458        16.25550         2.44443
C          9.62852        13.92813         2.46768
C         10.02102        17.06497         2.43860
C          8.73348        19.14820         2.02807
C          9.97736        18.48700         2.02525
C         11.18036         2.17397        -1.01921
C         11.05298         3.28360        -0.09358
C         12.43087         1.52868        -1.11149
C         12.23851         3.98218         0.40104
C         10.98593         6.21818         0.93386
C         11.03254         7.67657         0.99862
C         12.22076         5.42231         0.80782
C         12.24414         8.35003         1.06863
C         11.09428        10.54276         1.67045
C         11.12037        12.03004         1.72367
C         12.39502         9.75195         1.63312
C         12.30677        12.70980         1.58362
C         11.46213        15.02351         2.38688
C         11.27374        16.35518         2.13376
C         12.37903        14.19296         1.58573
C         12.48551        17.11021         1.73442
C         11.13224        19.16104         1.56118
C         12.39447        18.53677         1.37750
C         13.54416         2.02600        -0.40299
C         13.45509         3.31779         0.24277
C         14.76234         1.30916        -0.40758
C         14.72055         3.93435         0.79817
C         13.42191         6.12371         0.77750
C         13.45943         7.60616         0.72307
C         14.70632         5.41907         0.52116
C         14.76039         8.36071         0.58924
C         13.50712        10.52294         0.93708
C         13.49900        12.02021         0.99241
C         14.81251         9.83625         0.80464
C         14.80412        12.72201         0.82275
C         13.59220        14.88865         1.05692
C         13.71962        16.34711         1.35839
C         14.83052        14.13432         0.78300
C         14.83938        17.05156         0.72347
C         13.53730        19.17044         0.88131
C         14.77249        18.47536         0.60388
C         15.99649         1.91574        -0.03676
C         16.01002         3.28638         0.35055
C         17.21463         1.20760        -0.15295
C         17.24642         3.99029         0.42201
C         16.02974         6.14942         0.60860
C         16.01909         7.61300         0.90035
C         17.28370         5.38380         0.69136
C         17.30011         8.37702         1.01167
C         15.98344        10.53373         0.65932
C         16.00283        11.99279         0.63584
C         17.26724         9.77295         0.34761
C         17.22688        12.71204         0.40109
C         16.00914        14.85648         0.51428
C         15.99110        16.31004         0.40941
C         17.22196        14.13762         0.30867
C         17.17923        17.00614         0.05483
C         15.93248        19.14534         0.17475
C         17.14499        18.44176        -0.05797
C         18.45949         1.86309        -0.01135
C         18.47983         3.28072         0.20131
C         19.68299         1.15214        -0.12029
C         19.71680         3.98880         0.09490
C         18.56987         6.08912         0.81008
C         18.59947         7.61122         1.00503
C         19.77382         5.40350         0.28372
C         19.87269         8.35102         0.66074
C         18.51945        10.59168         0.64465
C         18.48324        12.02899         0.30868
C         19.83160         9.85689         0.55157
C         19.68899        12.71517         0.08939
C         18.43466        14.85214         0.03631
C         18.39982        16.28924        -0.11631
C         19.65669        14.14829        -0.08526
C         19.58435        17.00668        -0.41390
C         18.33919        19.13224        -0.36736
C         19.56129        18.44628        -0.53790
C         20.91616         1.83066        -0.17307
C         20.91691         3.27393        -0.18077
C         22.15481         1.14871        -0.20208
C         22.11351         3.98049        -0.46530
C         20.93910         6.10557        -0.07509
C         21.03955         7.58092         0.12459
C         22.06782         5.39676        -0.55250
C         22.07767         8.34692        -0.64761
C         20.99558        10.59728         0.02056
C         20.93559        11.97302        -0.07515
C         22.22654         9.82462        -0.37055
C         22.23498        12.74019        -0.24313
C         20.85075        14.87713        -0.42425
C         20.80971        16.30326        -0.59485
C         22.05736        14.18822        -0.66113
C         21.99235        17.03297        -0.89492
C         20.76253        19.15087        -0.79782
C         21.99119        18.47214        -0.96813
C         23.38127         1.84977        -0.29449
C         23.37066         3.27306        -0.54386
C         24.61718         1.18841        -0.14548
C         24.58537         3.95981        -0.72723
C         23.22251         6.09089        -1.14743
C         23.21182         7.58624        -1.26000
C         24.54860         5.35977        -1.20323
C         24.51379         8.26465        -1.63609
C         23.36635        10.53805        -1.05023
C         23.21232        12.02093        -1.16098
C         24.51483         9.76049        -1.72054
C         24.10726        12.80261        -1.81861
C         23.17534        14.91238        -1.11966
C         23.19617        16.33322        -1.14866
C         24.34141        14.20504        -1.55501
C         24.42621        17.00569        -1.38804
C         23.21345        19.14401        -1.20336
C         24.43875        18.44341        -1.37507
C         25.83961         1.89725        -0.19611
C         25.83127         3.30094        -0.52573
C         27.07388         1.25935         0.05117
C         27.06500         3.99958        -0.65627
C         25.80054         6.15650        -1.23353
C         25.80724         7.52659        -1.41349
C         27.05915         5.38921        -1.16030
C         27.05447         8.27475        -1.26559
C         25.86719        10.39802        -1.67165
C         25.99062        11.73621        -2.03676
C         27.04583         9.71338        -1.31694
C         27.03044        12.56907        -1.60477
C         25.58974        14.81452        -1.68149
C         25.64345        16.26358        -1.55820
C         26.87111        14.04314        -1.49083
C         26.86141        16.96765        -1.64592
C         25.67401        19.11598        -1.51717
C         26.89198        18.40006        -1.63022
C         28.28850         1.97773         0.03366
C         28.28790         3.37488        -0.33829
C         29.50026         1.34473         0.38868
C         29.53356         4.11112        -0.29171
C         28.36890         6.17037        -1.09402
C         28.28358         7.63507        -1.04618
C         29.56515         5.50532        -0.55871
C         29.49193         8.37430        -0.82834
C         28.24688        10.47754        -1.15952
C         28.21970        11.91132        -1.20643
C         29.47370         9.79573        -0.90673
C         29.42908        12.66391        -0.96983
C         28.14468        14.81787        -1.33051
C         28.14031        16.21884        -1.91240
C         29.44124        14.09773        -1.16321
C         29.39012        16.99238        -1.61590
C         28.13866        19.08444        -1.71863
C         29.38840        18.39811        -1.68046
C         30.71851         2.05971         0.46120
C         30.72854         3.46389         0.13215
C         31.90606         1.42269         0.87803
C         31.95720         4.19240         0.21479
C         30.74822         6.26913        -0.39301
C         30.72500         7.69826        -0.56660
C         31.97520         5.60994        -0.07989
C         31.93011         8.45054        -0.42392
C         30.68157        10.54278        -0.74698
C         30.63066        11.97013        -0.76679
C         31.91380         9.87146        -0.52896
C         31.83369        12.71314        -0.37167
C         30.60631        14.83623        -1.06017
C         30.64168        16.23744        -1.55685
C         31.79914        14.24767        -0.43306
C         31.93341        17.01817        -1.48228
C         30.62912        19.12830        -1.62781
C         31.86434        18.49903        -1.49118
C         33.12200         2.14122         1.01852
C         33.12259         3.53674         0.66255
C         34.31648         1.49388         1.40533
C         34.41288         4.23264         0.58156
C         33.17377         6.36821        -0.03085
C         33.16604         7.77290        -0.16414
C         34.46026         5.68767         0.16597
C         34.40512         8.51982        -0.12207
C         33.15124        10.62232        -0.43165
C         33.12324        12.01974        -0.35381
C         34.39367         9.89919        -0.33516
C         34.35485        12.81117        -0.12272
C         33.08247        15.06418        -0.21996
C         33.14132        16.37909        -0.94851
C         34.36718        14.26955        -0.34797
C         34.32697        17.09310        -0.91412
C         33.08894        19.20266        -1.36190
C         34.31278        18.53159        -1.17492
C         35.50151         2.24484         1.80240
C         35.53954         3.74639         1.41170
C         36.79827         1.63513         2.05385
C         36.82714         4.45486         1.34736
C         35.66709         6.47945         0.47791
C         35.64960         7.85086         0.21814
C         36.85388         5.81936         0.93821
C         36.88407         8.60947         0.30054
C         35.68387        10.62636        -0.61099
C         35.66899        12.08116        -0.17729
C         36.91316         9.94022        -0.08258
C         36.91430        12.85012        -0.42548
C         35.57007        14.95878        -0.48132
C         35.57310        16.40520        -0.67309
C         36.83373        14.24489        -0.53457
C         36.77928        17.13586        -0.73979
C         35.53187        19.24013        -1.11490
C         36.75565        18.57612        -0.91216
C         37.95491         2.39787         2.17108
C         37.97927         3.81058         1.84331
C         39.19386         1.77042         2.56178
C         39.20365         4.54646         1.94641
C         38.06258         6.57920         1.09797
C         38.09314         7.94844         0.74761
C         39.23933         5.93461         1.61142
C         39.30541         8.70840         0.90307
C         38.22716        10.64241        -0.31771
C         38.15787        12.15837        -0.29693
C         39.35851        10.07463         0.50560
C         39.35912        12.86840        -0.17206
C         38.05225        15.00596        -0.79412
C         38.04124        16.47301        -0.68827
C         39.41105        14.27786        -0.57369
C         39.24972        17.19194        -0.66161
C         37.97947        19.28628        -0.91819
C         39.20964        18.63172        -0.76792
C         40.34712         2.48978         2.69361
C         40.38212         3.89659         2.40771
C         41.56782         4.65076         2.56525
C         40.43734         6.67924         1.80097
C         40.45649         8.09011         1.47856
C         41.58922         6.00551         2.28598
C         41.60154         8.88985         1.71087
C         40.50658        10.84691         0.75011
C         40.54109        12.26468         0.37773
C         41.61675        10.23100         1.38447
C         41.65320        13.07205         0.61647
C         40.57345        15.10125        -0.22763
C         40.52486        16.53550        -0.47347
C         41.65512        14.46273         0.36096
C         41.68575        17.30968        -0.45928
C         40.43383        19.36664        -0.75283
C         41.63903        18.71280        -0.61444
O         10.14162        10.06775         2.70047
O         20.99039         7.95776         1.53190
O         22.07109         8.03905        -2.06888
O         38.86323        14.51944        -1.90687
O         19.29405        10.35462         1.84654
O          2.71717         5.86999         0.53974
O         31.51363        13.53943         0.82051
O         16.51915         8.08165         2.19878
O         18.76223         6.74228         2.13654
O         31.50073        16.39475        -2.76631
O          9.57981         4.33381         1.47536
O         24.94494        12.25957        -2.79313
O         35.07630        12.35139         1.11839
O          3.99372        16.66507         2.74479
O          9.30711        16.72215         3.64780
O         15.37591         5.82755        -0.69302
O         13.09640        11.27294        -0.23535
O         24.33501         8.96829        -2.92075
O          7.13309         4.42879         1.04097
O         13.55092        16.79317         2.74379
O         17.33893         9.51787        -1.03300
O         12.45081        14.66309         0.16410
O         27.34109        14.55403        -0.15163
O         35.15633         3.35743         2.74262
O         10.65553        14.36209         3.31548
O         27.89727         5.57566        -2.35227
O         14.03825         8.03780        -0.62289
O         23.41756        10.17462         0.41199
O         34.76542         4.60208        -0.79260
O         23.69949         5.49163        -2.39607
O          9.10041        10.94414        -0.72967
H          9.19265        10.07037        -1.16492
O         22.82745        12.80439         1.08972
H         23.07413        11.87850         1.33027
O         33.05916        15.48674         1.18891
H         32.72302        14.71251         1.70129
O          3.99479        12.74374        -1.45705
H          4.83960        12.37439        -1.78966
O          2.39200        12.57923         1.82054
H          1.58376        13.00429         2.17475
O         28.17887        15.97258        -3.37121
H         28.44712        16.80795        -3.81058
O         38.56227        10.31352        -1.72044
H         37.81423        10.65660        -2.26579
O         14.66915         3.81192         2.25781
H         14.62705         2.85780         2.47877
O         12.83626         9.57359         3.00597
H         12.03568         9.36797         3.53942
O         35.81678        10.68257        -2.08402
H         35.68867         9.77151        -2.42629
H          0.71115         2.39474        -3.47790
H          0.49782         4.45086        -2.11708
H          2.96162         1.35830        -3.81421
H          0.48027         6.34908        -1.81546
H          0.52080         8.69764        -1.31688
H          0.54745        10.55187        -1.14104
H          0.44839        12.87503        -0.49540
H          0.58279        14.82069        -0.35486
H          0.68732        17.27305        -0.17517
H          1.83518        19.32801         0.70186
H          5.31767         1.37740        -3.51351
H          3.90055        20.43661         1.44368
H          7.68530         1.17961        -3.06450
H          6.37851        20.31905         1.74654
H         10.17650         0.89834        -2.46373
H          8.71932        20.23071         1.82657
H         12.53624         0.62334        -1.72654
H         11.02741        20.22208         1.28497
H         14.78100         0.29838        -0.84053
H         13.49801        20.24997         0.66924
H         17.19422         0.13722        -0.40471
H         15.92416        20.24051         0.07114
H         19.66262         0.05521        -0.19434
H         18.32155        20.22927        -0.44882
H         22.16863         0.05322        -0.10382
H         20.73481        20.24871        -0.86751
H         24.63044         0.10760         0.05846
H         23.22257        20.24414        -1.22929
H         27.08643         0.18874         0.30331
H         25.69650        20.21563        -1.50447
H         29.48804         0.27788         0.65647
H         28.13715        20.18402        -1.74081
H         31.88290         0.35116         1.12431
H         30.58896        20.22705        -1.67003
H         34.33796         0.39613         1.46840
H         33.08343        20.30179        -1.41305
H         36.86157         0.53914         2.12746
H         35.52926        20.33064        -1.26019
H         39.18335         0.69388         2.78627
H         37.96254        20.37808        -1.05314
H         41.27395         1.99701         3.02189
H         42.47952         4.14961         2.92123
H         42.52847         6.55595         2.42845
H         42.49716         8.45207         2.17078
H         42.52227        10.81301         1.60042
H         42.56049        12.64214         1.06082
H         42.54731        15.03848         0.64467
H         42.66475        16.82691        -0.33370
H         40.39958        20.46112        -0.85101
H         42.57836        19.28316        -0.60875
