         294
 CSIRO Nanostructure Databank - Neutral Graphene Oxide Data Set
C          1.99348         2.23160        -2.11259
C          1.89712         3.60971        -1.95075
C          3.02430         1.48070        -1.51857
C          2.79944         4.32648        -1.11722
C          1.85713         6.59349        -1.62665
C          1.68912         7.89909        -1.30447
C          2.73718         5.70373        -0.90730
C          2.25538         8.53413        -0.05741
C          1.28838        10.78823        -0.60942
C          1.23961        12.17045        -0.55552
C          2.39303        10.04127        -0.16878
C          2.51432        12.94052        -0.38730
C          1.20764        15.17164        -0.44922
C          1.17466        16.55870        -0.48030
C          2.40426        14.43775        -0.12555
C          2.32414        17.32303        -0.18997
C          2.40791        18.73116        -0.28191
C          3.99650         2.09809        -0.71656
C          3.81368         3.54548        -0.30212
C          5.09582         1.40436        -0.18987
C          5.16373         4.27370        -0.27242
C          3.68786         6.31846         0.05631
C          3.51006         7.77268         0.45742
C          4.96466         5.65645         0.28186
C          4.73383         8.54292         1.04033
C          3.40919        10.70370         0.72619
C          3.48695        12.23848         0.56618
C          4.78975        10.01005         0.52279
C          4.77647        12.97180         0.80045
C          3.53474        15.12254         0.25316
C          3.53869        16.62491         0.36106
C          4.85770        14.47941         0.60963
C          4.78938        17.23577        -0.25038
C          3.62017        19.40975        -0.15281
C          4.86982        18.71547        -0.12767
C          6.14955         2.07624         0.48205
C          6.19109         3.47015         0.50808
C          7.24698         1.28440         1.17369
C          7.32790         4.18918         0.99306
C          5.97146         6.28987         1.18567
C          6.09691         7.80249         0.79950
C          7.29632         5.56052         1.11953
C          7.26192         8.53821         1.57118
C          5.97548        10.77436         1.27580
C          6.05260        12.21640         0.79853
C          7.24409         9.97835         1.09728
C          7.20033        12.81650         0.33872
C          5.95193        14.89661        -0.39010
C          6.02482        16.42661        -0.48178
C          7.26104        14.22184        -0.04551
C          7.31722        17.11611        -0.26691
C          6.10796        19.32368        -0.21409
C          7.34149        18.57055        -0.19953
C          8.58218         1.98570         1.05694
C          8.61311         3.47079         1.35030
C          9.73905         1.31561         0.83150
C          9.79053         4.15402         0.69351
C          8.57610         6.30043         1.16202
C          8.59504         7.78851         1.29717
C          9.68222         5.62258         0.35317
C          9.69955         8.47322         0.48534
C          8.50789        10.69483         0.92182
C          8.46852        12.04561         0.27097
C          9.80481         9.94791         0.83289
C          9.74679        12.70724        -0.16404
C          8.44943        14.90250        -0.20029
C          8.46804        16.35703        -0.15241
C          9.73810        14.19463        -0.58523
C          9.73129        17.00697         0.24758
C          8.55722        19.23838        -0.14539
C          9.78883        18.53630         0.20434
C         10.99408         2.02116         0.60934
C         10.91679         3.45932         0.39411
C         12.20765         1.39497         0.49588
C         12.05148         4.18112        -0.29240
C         11.00545         6.35202         0.45615
C         11.01507         7.70376         0.50165
C         12.29040         5.53331         0.44986
C         12.30192         8.44140         0.68849
C         11.04713        10.69117         0.47353
C         11.03083        12.01893         0.18116
C         12.30246         9.94326         0.73909
C         12.31015        12.73689        -0.06746
C         10.99832        14.95105        -0.20811
C         11.00977        16.26469         0.14474
C         12.26665        14.20509        -0.36011
C         12.25124        17.01259         0.65646
C         11.10795        19.17286         0.05219
C         12.28221        18.49880         0.27738
C         13.41066         2.10869         0.10096
C         13.34822         3.41451        -0.33971
C         14.67034         1.40015         0.16005
C         14.52004         4.13500        -0.99609
C         13.42858         6.33775        -0.23786
C         13.64622         7.70177         0.47077
C         14.76074         5.52786        -0.32455
C         14.68567         8.55991        -0.35385
C         13.62153        10.67317         0.64912
C         13.55345        12.19499         0.62428
C         14.85865         9.93779         0.27491
C         14.84857        12.86136         0.10453
C         13.50652        15.06548        -0.50922
C         13.53204        16.35668         0.24538
C         14.81547        14.30639        -0.29838
C         14.80020        17.08044         0.25405
C         13.54330        19.19366         0.26529
C         14.78295        18.56003         0.28874
C         15.84787         1.98442        -0.22822
C         15.83095         3.24588        -1.06846
C         17.10596         1.27583        -0.11023
C         17.13397         4.06477        -0.94410
C         15.87396         6.37235        -1.08090
C         16.00649         7.80750        -0.53831
C         17.17684         5.56098        -1.02779
C         17.20058         8.45672        -0.47911
C         16.06898        10.69881        -0.11530
C         16.04151        12.04619        -0.27092
C         17.35852         9.90843        -0.03484
C         17.29586        12.78895        -0.55100
C         16.01234        15.03653        -0.90258
C         16.07571        16.41026        -0.22287
C         17.32045        14.25973        -0.71272
C         17.25660        17.26677        -0.66099
C         16.02816        19.25123         0.27029
C         17.26629        18.62786         0.01254
C         18.30071         1.94196        -0.12075
C         18.23390         3.45695        -0.05765
C         19.55867         1.25302         0.08908
C         19.61500         4.14024        -0.12411
C         18.48056         6.23164        -0.65540
C         18.50044         7.71226        -0.52913
C         19.75641         5.41523        -0.95679
C         19.79639         8.43042        -0.78799
C         18.47092        10.64627        -0.80155
C         18.57630        12.07863        -0.32193
C         19.81262         9.92495        -0.78123
C         19.75764        12.75355        -0.18019
C         18.41582        14.99366         0.04984
C         18.61084        16.42695        -0.54783
C         19.75364        14.22199         0.12509
C         19.73400        17.14158         0.24249
C         18.48483        19.32028         0.11527
C         19.74154        18.65543         0.10717
C         20.74292         1.88943         0.26563
C         20.85588         3.35871         0.16265
C         22.16672         3.99644        -0.11612
C         21.07953         6.16518        -0.68691
C         21.09036         7.67263        -0.58992
C         22.25772         5.31939        -0.34306
C         22.22473         8.47460        -0.07631
C         21.04789        10.64621        -0.36427
C         21.03293        12.03437        -0.21300
C         22.20923         9.83552        -0.06248
C         22.25723        12.81809        -0.21855
C         21.06616        14.96719         0.13280
C         21.11040        16.48611        -0.08579
C         22.27668        14.17379        -0.18146
C         22.18140        17.21578         0.70057
C         20.93290        19.30891         0.40248
C         22.10636        18.57383         0.79015
O         21.42988         6.98166        -1.86019
O          9.36254        10.42003         2.13939
O          9.02517         6.95335         2.40490
O         20.45015        14.53201         1.38461
O          8.96251        11.91669        -1.12325
O         20.17899         4.18436         1.21624
O         14.54056        10.14885         1.68871
O          5.18388        16.86752        -1.61609
O         17.41599         4.72740        -2.20312
O          3.08039         6.74360         1.37756
O         12.24491         9.14496         1.97447
O         15.81804        16.45068         1.17904
O         19.91792         9.16487        -2.04552
O         15.83571         2.60873        -2.33236
O          9.63420        17.78223         1.48936
O         17.53305        13.45878        -1.90378
O         12.35217        13.18997        -1.45013
O         18.57358         6.83279         0.66726
O          3.76975        12.79742         1.87430
O         15.17209        13.93685         1.05278
O          5.31835        15.00450         1.87518
H          4.76485        14.59789         2.57732
O         13.43567        15.52270        -1.89711
H         13.03910        14.79492        -2.42808
O         15.51633         6.53682        -2.47025
H         15.94660         5.78880        -2.95583
O          1.24021         8.40511         0.98126
H          1.61621         8.83770         1.78458
O         15.85545        15.25106        -2.31789
H         16.33991        14.51082        -2.76374
O          9.71442        14.21686        -2.03755
H          9.18156        13.43670        -2.32109
O         19.06089        16.18286        -1.88158
H         18.64841        16.87309        -2.45793
O          3.60493        16.99257         1.77710
H          2.82046        16.60697         2.21983
O          3.35298         3.52466         1.07881
H          2.45271         3.13783         1.09221
O         19.49671        16.96356         1.66081
H         20.27695        17.32132         2.13623
O          7.01383         8.47415         2.98386
H          7.62540         7.79085         3.35327
O         17.70272         3.74073         1.26877
H         18.47663         3.80319         1.87776
O          4.51027         8.59667         2.44883
H          4.55179         7.66571         2.78552
O          2.92347        10.45448         2.06028
H          3.64105        10.75673         2.67339
O         14.16132         8.88754        -1.65316
H         14.32862         8.12325        -2.25463
O          3.18970        12.82891        -1.68685
H          2.61077        13.22923        -2.36861
O          7.31222        -0.04917         0.67505
H          7.61593        -0.01678        -0.25501
O         17.75694         9.89347         1.35467
H         17.02429         9.51997         1.88908
O         12.62712         5.19526         1.80126
H         13.09975         5.96172         2.20361
O         13.33810        12.60198         1.98916
H         14.06939        12.23764         2.53307
O          5.63945         4.36865        -1.64662
H          6.49612         4.84708        -1.63693
O         12.16576        16.96446         2.11155
H         11.29165        17.36346         2.34677
O         19.83443         5.00785        -2.32663
H         20.25594         5.74320        -2.82772
O          5.51961         6.18643         2.57416
H          5.08130         5.31468         2.67857
O          9.18645         8.44440        -0.88851
H          9.33984         7.52217        -1.23989
O         14.20596         7.47896         1.77916
H         14.00488         8.29764         2.30508
O          9.26670         5.72728        -1.05435
H          9.99528         5.27767        -1.56990
O         17.05839        17.60533        -2.05805
H         16.52909        16.87120        -2.47102
O         15.26495         5.20626         0.96883
H         15.32984         6.02242         1.51451
O          5.61813        14.36689        -1.68549
H          5.24516        15.11144        -2.21489
O          6.43259         7.83400        -0.60791
H          7.39267         8.07424        -0.73242
O         17.86717        15.00611         1.36881
H         18.54349        15.39191         1.97428
O          5.01790        10.04950        -0.88167
H          5.68059         9.35279        -1.11834
O          8.75621         3.61279         2.79879
H          9.67927         3.37698         3.03148
O         14.13064         4.34966        -2.37994
H         14.64993         3.61765        -2.86021
O         12.96418         6.64086        -1.56413
H         13.47640         6.09134        -2.20805
O         17.98546        10.70483        -2.15896
H         18.72363        10.97272        -2.74508
O         21.47829        16.67484        -1.46952
H         21.48699        17.63816        -1.64885
O         11.57681         4.42975        -1.64793
H         12.37219         4.39074        -2.24419
O          5.64421        10.86071         2.68315
H          5.90051        10.00270         3.10668
H          1.26630         1.71807        -2.75725
H          1.09980         4.15266        -2.47757
H          3.11029         0.40691        -1.74116
H          1.32309         6.19513        -2.50251
H          1.02165         8.51330        -1.92702
H          0.39506        10.24828        -0.96057
H          0.31393        12.68030        -0.85796
H          0.29258        14.62183        -0.70731
H          0.24790        17.07035        -0.78089
H          1.49176        19.30734        -0.48370
H          5.16820         0.31388        -0.32231
H          3.62853        20.50935        -0.18807
H          6.97812         1.20951         2.26454
H          6.17763        20.42225        -0.19514
H          9.73068         0.21850         0.73340
H          8.58896        20.33084        -0.27360
H         12.28634         0.31169         0.67269
H         11.13566        20.23212        -0.24727
H         14.68054         0.40211         0.62555
H         13.51193        20.29338         0.21191
H         17.08333         0.18396         0.04184
H         16.02140        20.33401         0.47521
H         19.52676         0.15285         0.12733
H         18.46540        20.39523         0.35906
H         21.66509         1.30936         0.41948
H         23.07652         3.38879         0.00274
H         23.24516         5.78715        -0.47121
H         23.14608         7.94457         0.20528
H         23.11385        10.35622         0.28519
H         23.20134        12.28542        -0.40454
H         23.22266        14.71136        -0.34379
H         23.09382        16.68503         1.01000
H         20.95420        20.40710         0.45885
H         22.94721        19.14113         1.21680
