         344
 CSIRO Nanostructure Databank - Neutral Graphene Oxide Data Set
C          1.32523         3.50683        -1.07977
C          0.13830         4.21731        -1.22493
C          1.27180         6.31382        -0.66186
C          0.10182         5.59890        -1.02392
C          1.27669         7.73864        -0.48751
C          0.04646         8.50061        -0.45897
C          1.32574        10.60055        -0.71036
C          0.04302         9.85494        -0.45128
C          1.26722        12.08424        -0.41268
C          0.11888        12.80967        -0.74810
C          1.20899        14.90534        -0.15902
C          0.07906        14.19299        -0.57284
C          1.13298        16.40550         0.03990
C          0.15346        17.10611        -0.87802
C          1.46079        19.23940        -0.86024
C          0.26008        18.40059        -1.19777
C          1.17787        20.48266         0.01469
C         -0.00739        21.28832        -0.43307
C          1.17931        23.42746        -0.15948
C          0.00248        22.63614        -0.48451
C          1.15360        24.81649        -0.13835
C         -0.03040        25.58804        -0.42312
C          1.23101        27.69528        -0.37484
C         -0.00559        26.95239        -0.49281
C          1.25844        29.11008        -0.61557
C          3.74459         3.47480        -0.58986
C          2.52441         4.17853        -0.71897
C          3.68636         6.27355        -0.09660
C          2.49570         5.59455        -0.50872
C          3.66273         7.68524         0.11536
C          2.49585         8.41484        -0.18165
C          3.63161        10.55301         0.29305
C          2.50465         9.86807        -0.10446
C          3.56068        12.00939         0.54648
C          2.39094        12.77835         0.07313
C          3.63315        14.91251         0.47229
C          2.39609        14.19690         0.15887
C          3.66959        16.33998         0.39007
C          2.49011        17.07490         0.01771
C          3.73363        19.17355         0.17119
C          2.55967        18.44042        -0.18813
C          3.69293        20.60114         0.21002
C          2.44943        21.30850         0.08239
C          3.65938        23.44146         0.20869
C          2.42272        22.70045         0.08545
C          3.66004        24.85161         0.21665
C          2.35370        25.58123         0.38031
C          3.66164        27.71801        -0.04687
C          2.41206        27.01911        -0.07336
C          3.67930        29.14100        -0.30950
C          2.43544        29.80803        -0.56674
C          6.19159         3.44569        -0.28978
C          4.93473         4.13772        -0.22796
C          6.10913         6.21810         0.50528
C          4.88675         5.53123         0.07040
C          6.15205         7.69249         0.53008
C          4.83111         8.37673         0.79041
C          6.06709        10.55536         0.71214
C          4.87840         9.86916         0.56161
C          6.10844        11.99973         0.81881
C          4.82506        12.74331         0.89616
C          6.05897        14.89425         0.89539
C          4.83632        14.21513         0.73390
C          6.09585        16.30473         0.85061
C          4.89507        17.03521         0.59066
C          6.09109        19.20834         0.84792
C          4.91605        18.47674         0.53954
C          6.11283        20.61688         0.71571
C          4.90273        21.31572         0.40348
C          6.12032        23.46469         0.40598
C          4.89344        22.74115         0.33247
C          6.10503        24.87397         0.37786
C          4.87698        25.57241         0.27450
C          6.12243        27.73394         0.06612
C          4.86723        27.02573         0.17070
C          6.13020        29.18059        -0.15854
C          4.88905        29.84244        -0.32496
C          8.64455         3.46225        -0.43088
C          7.41560         4.08574        -0.10834
C          8.64313         6.28878         0.25759
C          7.43046         5.47478         0.40989
C          8.60953         7.66677         0.36791
C          7.34235         8.36357         0.57673
C          8.58798        10.58269         0.59625
C          7.35437         9.81292         1.01855
C          8.56710        11.99143         0.68477
C          7.30472        12.67996         0.90814
C          8.56822        14.87586         0.95346
C          7.30414        14.13415         1.32034
C          8.54996        16.29948         1.11186
C          7.34089        17.00050         1.08671
C          8.57444        19.23025         1.48763
C          7.29329        18.46663         1.29224
C          8.58349        20.71533         1.27373
C          7.33693        21.37598         0.80655
C          8.63710        23.42292         0.14352
C          7.35438        22.73518         0.55026
C          8.64823        24.91440         0.34371
C          7.36558        25.64437         0.68548
C          8.59391        27.72163        -0.26456
C          7.31669        27.05294         0.16016
C          8.59480        29.22952        -0.06556
C          7.34281        29.89012        -0.11934
C         11.07287         3.52116        -0.72186
C          9.87700         4.13847        -0.35902
C         10.99684         6.35592        -0.57169
C          9.95900         5.55124         0.19767
C         11.04320         7.79676        -0.11735
C          9.84206         8.44339         0.22398
C         11.01214        10.60162         0.14842
C          9.81459         9.87970         0.34165
C         10.99262        12.09242        -0.02743
C          9.74775        12.76893         0.47877
C         11.03094        14.91394         0.31803
C          9.73607        14.17996         0.61370
C         11.06315        16.35554         0.74174
C          9.84490        17.01217         1.21936
C         11.04905        19.24850         0.74059
C          9.88710        18.50253         1.38721
C         11.20881        20.65596         1.36789
C          9.89563        21.43973         1.21943
C         11.11423        23.46074         0.46557
C          9.91764        22.79238         0.63337
C         11.11302        24.88088         0.18224
C          9.83572        25.58595         0.26650
C         11.04403        27.77135        -0.12486
C          9.81216        27.08955         0.42818
C         11.07350        29.24987         0.01656
C          9.80412        29.91554         0.04338
C         13.55132         3.55541        -0.88849
C         12.32490         4.23090        -0.71840
C         13.53102         6.36414        -0.56328
C         12.32463         5.64506        -0.56420
C         13.52003         7.81630        -0.37100
C         12.27007         8.50413        -0.17849
C         13.47854        10.65180         0.02755
C         12.25472         9.92968        -0.01418
C         13.47811        12.06087         0.39469
C         12.25030        12.74763         0.46384
C         13.49844        14.89953         0.85329
C         12.18994        14.15400         0.99267
C         13.52190        16.26237         0.70685
C         12.27624        17.03434         0.71817
C         13.56980        19.14500         0.62778
C         12.34705        18.46889         0.76468
C         13.59194        20.61623         0.56948
C         12.40720        21.36154         0.76453
C         13.59004        23.44305         0.21997
C         12.38485        22.75061         0.52845
C         13.58252        24.87079        -0.00604
C         12.32417        25.55411         0.00518
C         13.57585        27.74651        -0.23370
C         12.31160        27.00328        -0.28110
C         13.54868        29.16681        -0.06810
C         12.29892        29.88715         0.03252
C         16.02999         3.57552        -1.05694
C         14.76856         4.26512        -0.90551
C         16.02220         6.44945        -0.95387
C         14.75140         5.67367        -0.73104
C         16.00658         7.82337        -0.33339
C         14.72583         8.51186        -0.24683
C         15.91895        10.59762         0.25270
C         14.71794         9.93580         0.00756
C         15.99821        12.08824         0.28200
C         14.69695        12.72226         0.65813
C         16.02586        14.84069         0.86572
C         14.73683        14.12229         1.21992
C         15.99118        16.23071         0.59270
C         14.78644        16.97565         0.61058
C         16.05753        19.08141         0.32799
C         14.79223        18.39521         0.49736
C         16.03018        20.54290         0.05636
C         14.79244        21.31797         0.29203
C         16.07123        23.49493         0.03176
C         14.80592        22.72245         0.16846
C         16.04546        24.91678        -0.38185
C         14.78526        25.58597        -0.26953
C         16.02638        27.72400        -0.39474
C         14.77925        27.02768        -0.32127
C         16.00396        29.13934        -0.12068
C         14.77500        29.82810         0.05178
C         18.50130         3.51623        -0.88039
C         17.24372         4.22768        -0.89979
C         18.44221         6.28558        -0.32742
C         17.26905         5.65563        -0.65453
C         18.45280         7.67523         0.25760
C         17.16402         8.42786         0.05852
C         18.42393        10.60768         0.37011
C         17.14530         9.82372         0.61733
C         18.45650        11.91177         0.73684
C         17.17301        12.62431         1.12719
C         18.49854        14.76673         0.71307
C         17.23553        14.12011         0.89004
C         18.52570        16.28552         0.64840
C         17.24315        16.89153         0.07586
C         18.57040        19.06364         0.25605
C         17.24664        18.38888         0.26146
C         18.60654        20.57018         0.06162
C         17.30812        21.27066        -0.15037
C         18.52394        23.40239        -0.71469
C         17.37129        22.76163        -0.04326
C         18.41835        24.76552        -1.11513
C         17.22612        25.58440        -0.78210
C         18.38701        27.88739        -0.95728
C         17.22559        27.04723        -0.76157
C         18.41226        29.22864        -0.43456
C         17.22118        29.83218        -0.00026
C         19.67799         4.16349        -0.63606
C         20.87919         6.31157        -0.26866
C         19.70322         5.57996        -0.36542
C         20.85987         7.74880        -0.26169
C         19.70009         8.45462        -0.11620
C         20.87183        10.72152        -0.15761
C         19.58700         9.95022        -0.35186
C         20.93757        11.93160         0.41094
C         19.75843        12.60971         1.06313
C         20.93790        14.87130         0.93857
C         19.70987        14.10467         0.83712
C         20.99779        16.17918         0.59318
C         19.79245        16.80429        -0.07870
C         20.92547        19.03301        -0.42465
C         19.80478        18.32770        -0.07342
C         20.92422        20.44667        -0.66940
C         19.78574        21.20978        -0.54013
C         20.68040        23.13602        -1.82201
C         19.65793        22.59379        -1.02413
C         20.55815        24.42643        -2.31844
C         19.45949        25.21753        -1.96756
C         20.65050        28.31886        -1.85789
C         19.50941        27.53693        -1.75437
C         20.72438        29.54245        -1.15491
C         19.61515        30.00042        -0.48025
O          7.77644        18.85881         2.64377
O         19.41229        26.44422        -2.62244
O          9.11678        21.41445         2.47318
O          6.74626         5.61938         1.69930
O         18.75649        20.00477         1.38993
O         11.43617        27.32565        -1.46752
O         16.57399        20.81367        -1.33040
O         16.95370        23.31130         1.23479
O          3.91683        12.29649         1.95543
O         10.15089        17.68178         2.53530
O         18.57762        16.74840         2.01847
H         19.41247        16.42237         2.41706
O         17.22186        16.66381        -1.37738
H         16.39770        17.06338        -1.72900
O         17.07588         9.66930         2.09429
H         16.92463        10.58137         2.47150
O          8.65594        23.21702        -1.32765
H          9.31687        23.83755        -1.70448
O          7.40399         9.73164         2.49037
H          7.43553        10.65220         2.83223
O         19.24433        10.07085        -1.77354
H         19.04783        11.01508        -1.95350
O          1.54684        10.52775        -2.16901
H          1.51668         9.57904        -2.41781
O         18.55977         7.44004         1.71029
H         18.09292         8.18434         2.16643
O          1.98886        19.75095        -2.11102
H          2.22193        18.98726        -2.67825
O         10.54021         6.38752        -1.96117
H         11.23204         6.83405        -2.49299
O         11.50113        20.50119         2.76490
H         10.65120        20.61791         3.25446
O          9.70307        27.39910         1.84635
H         10.45500        26.97845         2.31407
O         14.68784        13.99620         2.69653
H         14.90789        14.87679         3.06972
O          0.88350        19.95536         1.34346
H          0.76527        20.71646         1.95012
O         16.33424        12.51955        -1.09722
H         15.60479        12.22482        -1.68379
O         19.90372        12.43827         2.52189
H         20.12586        11.49637         2.68509
O         16.91291        12.35128         2.53044
H         17.70959        12.64824         3.02607
O         10.98777        12.28187        -1.54485
H         10.15937        11.87186        -1.87681
O         10.64503        19.42906        -0.64666
H         11.42917        19.70941        -1.16446
O         11.89917        14.06925         2.41831
H         12.74580        13.81919         2.86445
O          7.39009        25.79715         2.15242
H          8.12878        26.42443         2.35495
O          4.59627         8.22156         2.23040
H          5.38799         8.58778         2.68747
O         19.84074        16.34325        -1.44866
H         18.94711        16.48327        -1.84378
O         16.06304         6.68992        -2.41225
H         16.13406         5.81252        -2.84559
O         10.42448         5.44885         1.56946
H          9.69166         5.09214         2.11444
O          0.62677        16.61228         1.39815
H          0.64848        17.58055         1.57127
O         11.25713        14.94304        -1.11376
H         11.19602        14.01338        -1.46165
O          7.27207        14.10039         2.79113
H          7.37042        15.02326         3.11098
O          2.14891        25.65964         1.84687
H          1.33363        26.18561         1.99301
O          8.68599        27.45978        -1.69076
H          9.60694        27.64606        -1.98544
H          1.34534         2.41963        -1.24091
H         -0.78327         3.68842        -1.50609
H         -0.84901         6.13106        -1.16107
H         -0.90636         7.95868        -0.37219
H         -0.90778        10.40073        -0.37290
H         -0.76867        12.29483        -1.14019
H         -0.86146        14.71632        -0.78871
H         -0.74608        16.56164        -1.20119
H         -0.50988        18.86952        -1.83104
H         -0.93767        20.74440        -0.65623
H         -0.91940        23.15798        -0.77829
H         -0.98013        25.06995        -0.61627
H         -0.92752        27.50730        -0.71964
H          0.31346        29.62617        -0.83952
H          3.76945         2.39576        -0.80161
H          2.44666        30.89251        -0.74892
H          6.18518         2.39733        -0.62491
H          4.88081        30.92749        -0.50778
H          8.62683         2.42965        -0.81373
H          7.31730        30.99077        -0.11473
H         11.06847         2.45948        -1.01422
H          9.79288        31.01516         0.10146
H         13.55796         2.46185        -1.00734
H         12.34221        30.98254         0.12617
H         16.01370         2.48560        -1.20746
H         14.79674        30.91078         0.24402
H         18.49172         2.43241        -1.06916
H         17.22709        30.88177         0.32727
H         20.62865         3.60965        -0.64480
H         21.84900         5.79810        -0.34491
H         21.81384         8.26626        -0.44450
H         21.78203        10.29836        -0.61021
H         21.90944        12.44697         0.46388
H         21.82958        14.36834         1.34219
H         21.93717        16.74302         0.68942
H         21.85478        18.48671        -0.64300
H         21.85119        20.88625        -1.06325
H         21.55896        22.53586        -2.09032
H         21.31620        24.84211        -2.99431
H         21.47151        27.99845        -2.51162
H         21.63729        30.15077        -1.20981
H         19.61606        30.99587        -0.01462
