         486
 CSIRO Nanostructure Databank - Neutral Graphene Oxide Data Set
C          8.85986        18.81130        -1.99142
C          8.65835        20.26712        -1.65627
C          7.57190        21.02320        -2.38732
C          8.60000        23.22371        -1.93050
C          7.51529        22.37988        -2.40823
C          8.68388        24.58497        -2.11191
C         11.21856        14.48471        -1.15088
C         11.15658        15.99384        -1.01751
C         10.07591        16.67668        -1.48699
C         11.02170        18.87456        -0.86837
C          9.97131        18.13627        -1.46646
C         11.22068        20.33144        -1.17235
C          9.96436        21.04620        -1.65116
C         10.74586        23.31908        -0.62519
C          9.84936        22.51628        -1.53915
C         11.13996        24.61072        -1.37147
C          9.89746        25.34911        -1.86435
C         11.21116        27.46415        -1.95856
C         10.00075        26.67961        -2.19068
C         11.46594        28.66426        -2.55467
C         13.27606        10.29994         0.46429
C         13.29027        11.66166         0.40894
C         12.18749        12.46537        -0.10141
C         13.60082        14.55660        -0.05529
C         12.29696        13.80094        -0.33723
C         13.40520        16.03833         0.28126
C         12.33968        16.72063        -0.49926
C         13.00842        18.93112         0.69509
C         12.24684        18.21426        -0.40620
C         13.11944        20.43053         0.42813
C         12.07783        21.08414        -0.16863
C         13.17468        23.35727         0.33884
C         11.95772        22.56679        -0.05627
C         13.23261        24.88299         0.22547
C         12.02230        25.49454        -0.50971
C         13.46073        27.57810        -0.78027
C         12.15248        26.91524        -0.93654
C         13.42756        29.05329        -1.02977
C         12.80041        29.36949        -2.39485
C         13.82470        31.65165        -2.08672
C         12.81177        30.87439        -2.59572
C         13.99093        33.02943        -2.51219
C         15.78451         7.42284         0.47831
C         14.59970         8.08328         0.41893
C         15.75825        10.21744         1.10926
C         14.47904         9.50395         0.82150
C         15.77814        11.71282         1.07018
C         14.52617        12.43000         0.73631
C         15.57591        14.59067         1.62342
C         14.30370        13.86771         1.16954
C         15.74411        16.04890         1.15109
C         14.38739        16.73209         0.92672
C         15.54338        18.96798         1.49188
C         14.29142        18.20625         1.14656
C         15.61934        20.40838         1.10073
C         14.38708        21.15023         0.69987
C         15.63870        23.27752         0.63335
C         14.43969        22.62638         0.59135
C         15.76534        24.59335        -0.02856
C         14.53965        25.36964        -0.38508
C         15.90852        27.46783        -0.61185
C         14.64037        26.84599        -0.60634
C         15.91955        28.94067        -0.39789
C         14.77115        29.72834        -0.88894
C         16.03959        31.86268        -0.82271
C         14.87538        31.04388        -1.24726
C         16.15129        33.27416        -1.31255
C         15.09905        33.79084        -2.21581
C         16.52047        35.74282        -2.73480
C         15.31060        35.10325        -2.78095
C         18.24433         7.41765         0.80382
C         17.05181         8.08257         0.74741
C         18.29139        10.23762         1.30657
C         17.06805         9.58973         0.68378
C         18.19817        11.61025         1.88576
C         16.88450        12.34903         1.85871
C         18.13354        14.59751         2.08553
C         16.81574        13.84840         2.04751
C         18.11111        16.08702         2.01065
C         16.75600        16.81869         2.05569
C         18.02424        19.00951         1.74677
C         16.85738        18.29364         1.66799
C         18.09120        20.48460         1.77093
C         16.79259        21.19018         1.62406
C         18.11303        23.40343         1.40835
C         16.80646        22.66291         1.31023
C         18.32752        24.57712         0.49298
C         17.11697        25.22353        -0.11603
C         18.44160        27.41261        -0.16550
C         17.16654        26.68598        -0.48459
C         18.47510        28.89790        -0.33289
C         17.21604        29.66840        -0.19028
C         18.63395        31.79829        -0.51259
C         17.28844        31.16552        -0.31356
C         18.71378        33.10954        -1.02341
C         17.52709        33.92419        -1.33760
C         18.93813        35.75863        -2.22045
C         17.69943        35.15878        -2.14544
C         20.70282         7.50477         0.66876
C         19.50149         8.13670         0.89708
C         20.77556        10.24412         1.47280
C         19.47391         9.55489         1.26065
C         20.78074        11.73294         1.76200
C         19.47337        12.43982         2.19312
C         20.66896        14.64056         1.85311
C         19.35766        13.85114         1.55678
C         20.60490        16.12684         1.50020
C         19.25725        16.82005         1.31893
C         20.41973        19.06493         1.17770
C         19.33886        18.25623         1.90308
C         20.56324        20.43863         1.83630
C         19.27205        21.19609         1.92489
C         20.66899        23.46876         1.88136
C         19.34367        22.69821         1.95749
C         20.76845        24.71113         0.99261
C         19.60723        25.34186         0.64880
C         20.70982        27.59460         1.05281
C         19.42219        26.82430         0.83835
C         20.82956        28.89270         0.66266
C         19.75319        29.58809        -0.07910
C         21.19697        31.42642        -0.70480
C         19.80310        31.05158        -0.25262
C         21.27367        32.84855        -1.25271
C         20.02242        33.64777        -1.44629
C         21.34831        35.72081        -1.66976
C         20.12470        35.10071        -1.74259
C         23.12579         7.60815         0.14739
C         21.94135         8.24237         0.56067
C         23.11157        10.40792         0.56314
C         21.95964         9.63545         0.82891
C         23.04016        11.86285         0.71460
C         21.91843        12.49927         1.19195
C         23.12726        14.65615         1.53289
C         21.82479        14.01600         1.05722
C         23.11779        16.18856         1.78773
C         21.76051        16.82602         1.35955
C         23.02739        19.04023         0.99663
C         21.73299        18.28251         1.02675
C         23.10625        20.50037         1.25904
C         21.86203        21.17674         1.70141
C         23.12260        23.28480         1.84158
C         21.91711        22.64420         1.79712
C         23.08375        24.68762         2.39504
C         21.71956        25.37084         1.99658
C         23.08885        27.64468         1.76728
C         21.71672        26.95468         2.02585
C         23.15182        28.97808         1.48759
C         21.90927        29.80065         1.22208
C         23.33518        31.82061         0.56318
C         22.17790        31.05679         0.38736
C         23.57401        32.99700        -0.19675
C         22.64925        33.51660        -1.28303
C         23.66723        35.79662        -0.96869
C         22.56277        35.04877        -1.26983
C         25.49592         7.61865        -0.64637
C         24.28072         8.35657        -0.12278
C         25.39759        10.56672        -0.53714
C         24.25702         9.75232         0.02434
C         25.51016        11.88666         0.22709
C         24.22603        12.71101         0.25614
C         25.63792        14.77126         0.99670
C         24.37716        13.95903         1.13555
C         25.49740        16.21149         0.70088
C         24.31770        16.87873         1.04424
C         25.46994        19.06341         0.65250
C         24.27088        18.27030         0.96548
C         25.58447        20.32502         1.46943
C         24.31074        21.15407         1.35194
C         25.59024        23.25300         1.73590
C         24.38773        22.58298         1.66191
C         25.71559        24.66625         2.28991
C         24.38694        25.47297         2.30504
C         25.66188        27.66847         1.86700
C         24.37051        26.95252         2.07926
C         25.67410        29.02063         1.82043
C         24.39697        29.76154         1.71220
C         25.80051        31.85732         1.29387
C         24.44335        31.23386         1.39654
C         25.76614        33.34877         1.04951
C         24.83958        33.71066        -0.08377
C         26.00123        36.02639         0.03392
C         24.92263        35.19179        -0.51422
C         27.99271         7.77197        -0.98063
C         26.76564         8.44425        -0.70754
C         27.91941        10.65414        -0.94690
C         26.70973         9.82182        -0.62080
C         28.08993        11.87514        -0.03003
C         26.83020        12.56570         0.41854
C         28.00441        14.84275        -0.02275
C         26.90125        14.06537         0.61680
C         27.88764        16.19099        -0.22451
C         26.53541        16.88089        -0.20268
C         27.92347        19.14543         0.02869
C         26.64066        18.39251         0.05081
C         27.98554        20.44199         0.45802
C         26.88887        21.08479         1.23492
C         28.09043        23.37448         1.12646
C         26.88559        22.56822         1.46582
C         28.11987        24.72860         1.38878
C         26.80345        25.46917         1.52163
C         28.19975        27.60839         1.69706
C         26.94048        26.88832         2.15650
C         28.19437        28.98337         1.72132
C         26.95501        29.77159         2.12503
C         28.26904        31.85231         1.21548
C         26.94757        31.19383         1.57444
C         28.24571        33.36340         1.25304
C         27.10988        34.02797         0.91765
C         28.38463        36.16633         0.66907
C         27.13240        35.45286         0.58304
C         30.45168         7.83022        -1.58568
C         29.20433         8.48501        -1.16707
C         30.43405        10.62775        -1.31059
C         29.19497         9.87452        -1.06906
C         30.46618        12.07788        -0.99077
C         29.34663        12.66927        -0.17734
C         30.35461        14.82915        -0.72082
C         29.28453        14.15187        -0.20446
C         30.04433        16.08333        -1.49243
C         29.10922        16.97147        -0.65503
C         30.14973        19.38858        -1.15706
C         29.11163        18.47983        -0.57847
C         30.29670        20.67557        -0.56642
C         29.04364        21.37972        -0.09891
C         30.48911        23.30083         0.61594
C         29.28219        22.66690         0.66729
C         30.67582        24.61262         1.36543
C         29.37988        25.43915         1.42453
C         30.74121        27.48835         1.82215
C         29.42195        26.81730         1.58198
C         30.76305        28.98125         1.74244
C         29.44372        29.74645         1.57916
C         30.77010        31.87613         1.56658
C         29.45951        31.21846         1.96119
C         30.80638        33.34289         1.51366
C         29.51316        34.10638         1.40475
C         30.86423        36.13462         0.88268
C         29.56369        35.52042         0.97933
C         31.62178         8.48878        -1.72821
C         32.87359        10.75602        -1.86107
C         31.77676         9.91150        -1.24442
C         32.93949        12.11869        -1.60901
C         31.79628        12.75708        -0.89872
C         32.93721        15.12334        -1.05676
C         31.71716        14.24929        -0.75719
C         32.57421        16.40710        -1.79204
C         31.27928        16.73980        -2.00185
C         32.44615        19.50226        -2.04530
C         31.16652        18.94439        -2.01990
C         32.62462        20.75208        -1.35762
C         31.51183        21.35184        -0.66978
C         32.79988        23.50307        -0.42454
C         31.75196        22.57611         0.19459
C         33.05795        24.79502         0.26780
C         31.79027        25.49429         0.72532
C         33.37629        27.49139         1.48761
C         32.02754        26.75007         1.55456
C         33.32317        28.75226         0.63454
C         31.84618        29.85032         2.19885
C         33.23518        31.80578         1.24647
C         31.95542        31.18274         1.59357
C         33.23037        33.23828         1.07609
C         32.08206        34.00297         1.17825
C         32.03819        35.42562         0.95942
C         33.98037        12.97699        -2.06648
C         35.04336        15.15474        -2.39213
C         34.01639        14.38663        -1.86602
C         35.09843        16.64676        -2.17876
C         33.68175        17.21365        -2.39329
C         34.87597        19.47552        -2.75569
C         33.58647        18.73167        -2.59340
C         34.99763        20.84625        -2.17398
C         33.85316        21.43141        -1.46151
C         35.26450        23.51519        -1.20791
C         33.95388        22.84568        -1.12266
C         35.30101        24.99653        -0.89694
C         34.23532        25.45596         0.08758
C         35.70748        27.53353         0.37694
C         34.61563        26.62266         0.97321
C         35.69335        28.96869         0.61034
C         34.51022        29.65309         0.82874
C         34.39826        31.07418         0.98207
C         36.16851        17.38102        -2.96211
C         37.27342        19.58728        -3.38618
C         36.13456        18.73795        -3.04539
C         37.38435        20.86486        -2.90029
C         36.38484        21.37680        -1.87571
C         37.60868        23.63144        -1.94112
C         36.37342        22.87916        -1.68049
C         37.74093        24.90369        -1.46503
C         36.72962        25.42508        -0.46946
C         36.74009        26.92302        -0.27066
C         38.51374        21.71306        -3.21570
C         38.62429        22.99292        -2.76293
O         21.41377        20.53536         2.99674
O         15.59028        12.28856        -0.25867
O         15.01589         9.67653         2.21838
O         17.98632        24.32880        -0.90298
O         19.34540        29.15427        -1.47640
O         32.56969        28.88050        -0.32086
O         30.25885        29.42946         0.44263
O         21.12998        10.75764         2.80373
O         18.46878        23.50379         2.80625
O         34.71092        20.66616        -3.60126
O         32.01379        13.36728         0.40079
O         28.41641        21.84304        -1.28784
O         16.41729        22.14594         2.64186
O         29.09697        11.85574         1.01710
O         15.13302        24.53613        -1.39189
O         26.68147        14.48325         1.99566
O         23.86039        13.85456         2.48373
O         17.26736        11.59778         3.03396
O         24.12762        30.79704         2.75888
O         29.76970        17.61475         0.47136
O         25.46142        34.08410        -1.33621
O         27.14057        26.84837         3.55151
O         15.83972        14.31477         3.02802
O         32.83723        23.59762        -1.87234
O         14.42007        14.51979        -1.17155
O         30.93268        17.82073        -2.83368
O         25.65856        19.14717        -0.80204
O         22.30774        18.63436        -0.28089
O         12.98063        17.60025        -1.50278
O         30.13647        33.89268         2.73789
O         18.42646        15.41545         3.26177
O         20.82453        24.54980         2.97905
O         27.34206        21.62065         2.52963
O         11.38546        26.51335         0.28536
O         31.48186        26.83645         2.91320
O         16.44073        29.23956         0.96627
O         30.22814        11.66502        -2.38005
O         18.24753        26.84397        -1.48154
O         14.56878        18.63661         2.54656
O         16.56324        34.17544        -0.24702
O         24.38313        26.40464         3.44410
O         26.18535        11.82412         1.50327
O         10.33847        21.89043        -2.79765
O         16.36115        31.79294         0.60410
O         23.26670        16.45605         3.11586
O         20.64007        32.86240        -2.57836
O         35.15477        25.97661         2.09490
O         33.37736        17.78085        -3.68672
O         15.39075        20.59192        -0.32042
O         12.16850        22.97097         1.35059
O         16.36806        15.99531        -0.14173
H         15.76434        15.46980        -0.75401
O         21.30509        27.32246         3.35615
H         21.86901        26.82471         3.98974
O         12.09255        18.83070         1.82373
H         12.60695        19.04102         2.63668
O         31.21829        26.00357        -0.51774
H         31.38403        25.35462        -1.23591
O         26.00737        16.70024        -1.54734
H         25.49846        17.52169        -1.76159
O         32.08936         9.79320         0.18033
H         32.18654        10.69347         0.55917
O         29.31931        31.33749         3.38087
H         29.43593        32.29277         3.60692
O         22.96919        24.45400         3.83389
H         23.87685        24.31463         4.18695
O         25.00614        10.89025        -1.91972
H         25.84315        11.06302        -2.42308
O         21.63916        14.36772        -0.32744
H         22.37809        13.96781        -0.85467
O         28.51893        31.53361        -0.18496
H         27.79311        31.90505        -0.73039
O         19.70287        18.17329         3.28157
H         19.08216        17.57106         3.74617
O         32.44513        29.69201         3.33644
H         32.51847        28.72633         3.60325
O         16.33323        16.82247         3.42245
H         15.51262        17.36552         3.49051
O         23.99145        13.20123        -1.09353
H         24.11581        12.42168        -1.70175
O         11.95480        24.24807        -2.50536
H         11.46239        23.59739        -3.05444
O         25.71200         6.42038         0.10846
H         25.81477         6.66435         1.05122
O         19.17508        13.65053         0.14873
H         19.21625        14.52239        -0.30657
O         18.93604        16.83413        -0.08207
H         19.21088        17.70487        -0.46400
O          9.88446        23.68238         0.46998
H         10.43691        23.70975         1.28616
O         36.74836        20.80506        -0.58688
H         37.56650        21.24663        -0.27550
O         13.37571        13.89956         2.25836
H         13.90349        13.94109         3.09055
O         33.77553        27.82139         2.82337
H         34.43041        27.08334         3.06047
O         21.55737        30.54707        -1.80880
H         20.99965        30.80060        -2.57789
O         12.53907        29.63765        -0.04439
H         12.87411        29.41080         0.84854
O         23.25378        33.13602        -2.54400
H         22.52506        33.10617        -3.20542
O         35.47139        16.93002        -0.79984
H         34.90033        16.38839        -0.19644
O         31.07025        24.21781         2.70071
H         31.16398        25.03909         3.24341
O         19.51074        12.61237         3.60816
H         19.94264        11.81737         3.99308
O         13.26974        25.39949         1.56683
H         12.50562        25.02596         2.05691
O         21.41183        30.29119         2.50029
H         22.20239        30.57134         3.02357
O          9.93437        13.90419        -0.90788
H          9.75090        13.95231         0.05264
O         25.58511        19.84431         2.83190
H         26.05200        20.51894         3.38118
O         25.13618        33.91707         2.23740
H         25.51067        33.47444         3.02882
O         27.00291        29.85838         3.57487
H         26.98609        28.92300         3.90419
O         34.99325        25.70456        -2.12902
H         34.15427        25.32820        -2.47854
O         17.15804         9.91800        -0.74244
H         17.98677         9.52929        -1.09325
O          8.27426        20.27653        -0.23309
H          7.42167        19.80069        -0.14413
O         13.69604        28.81645        -3.40186
H         13.28741        28.94194        -4.28342
O         12.13029        20.23127        -2.31949
H         11.78855        20.81795        -3.03449
O         19.91119        19.33203        -0.15556
H         20.69357        19.36096        -0.76075
O         37.07910        24.77347         0.76980
H         36.45806        25.13094         1.47675
O         21.02784        14.53851         3.22713
H         20.26390        14.83571         3.77232
O         33.48759        15.48005         0.23639
H         33.36930        14.69772         0.82478
O         18.71470        26.93397         2.11174
H         19.37407        26.83538         2.84138
O         26.12220        24.48231         3.64818
H         26.46737        25.37538         3.96298
O         26.27652        25.64965         0.18230
H         27.02106        25.73879        -0.44936
O         32.36458        22.07611         1.42258
H         32.07756        22.66363         2.16489
O         29.30113        15.65112        -2.66672
H         29.38921        16.35707        -3.34502
O         27.62312        11.25817        -2.27200
H         28.49845        11.51776        -2.67165
H          8.04388        18.24065        -2.46141
H          6.73873        20.44164        -2.81205
H          6.65033        22.87583        -2.87576
H          7.81139        25.13331        -2.50208
H         11.45818        14.28002        -2.23299
H          9.22622        16.10779        -1.89420
H          9.14400        27.18740        -2.66251
H         10.75206        29.06759        -3.29184
H         12.37081         9.75058         0.16095
H         11.26159        11.94409        -0.39495
H         12.09520        31.32064        -3.30443
H         13.22670        33.44717        -3.18601
H         15.81445         6.34347         0.26213
H         13.68324         7.54180         0.13868
H         16.62901        36.72255        -3.22350
H         14.47100        35.57486        -3.31287
H         18.27618         6.31976         0.73006
H         19.04048        36.74628        -2.69537
H         20.71743         6.42783         0.44472
H         21.41371        36.79898        -1.88434
H         23.14137         6.51933        -0.00351
H         23.59623        36.89575        -0.96834
H         25.27440         7.28627        -1.69928
H         25.97257        37.10887        -0.16424
H         27.98247         6.67663        -1.07234
H         28.40708        37.22013         0.35260
H         30.38888         6.76529        -1.85654
H         30.90480        37.21381         0.67315
H         32.51552         7.95566        -2.08535
H         33.69647        10.26286        -2.40024
H         34.17914        33.72793         0.80893
H         32.99254        35.95215         0.81117
H         34.81017        12.52388        -2.63057
H         35.83580        14.66421        -2.97969
H         36.64965        29.51723         0.56589
H         35.31840        31.65869         0.81239
H         37.10711        16.84391        -3.16893
H         38.08113        19.16622        -4.00531
H         38.66061        25.47701        -1.66091
H         37.57399        27.52151        -0.67446
H         39.30355        21.29410        -3.85785
H         39.51086        23.58797        -3.02806
