         234
 CSIRO Nanostructure Databank - Neutral Graphene Oxide Data Set
C          1.47384         1.93750        -1.87375
C          1.35357         3.29359        -1.48975
C          2.68695         1.28510        -1.81376
C          2.46642         4.03629        -1.09864
C          1.16862         5.81533         0.04324
C          1.12861         7.07183         0.69873
C          2.33059         5.38820        -0.56361
C          2.22412         7.91548         0.72396
C          0.98647        10.98072         0.82935
C          0.99478        12.31245         0.46096
C          2.19263        10.25434         0.88049
C          2.23782        12.96869         0.30414
C          1.17807        15.27193         0.26170
C          1.27526        16.64343         0.45984
C          2.31139        14.41364         0.33954
C          2.48256        17.21026         0.95166
C          2.70266        18.63927         1.15910
C          3.86223         1.98321        -1.40023
C          3.76117         3.39362        -1.10232
C          5.09951         1.33559        -1.28163
C          4.91389         4.10230        -0.74844
C          3.51345         6.27746        -0.54865
C          3.48702         7.63388         0.09630
C          4.85069         5.56440        -0.65344
C          4.62366         8.46788         0.14213
C          3.42565        10.77274         0.45121
C          3.44406        12.20659         0.30721
C          4.64980         9.93635         0.31087
C          4.69929        12.90794         0.23508
C          3.57444        14.99602         0.64015
C          3.52428        16.30448         1.16977
C          4.81112        14.27919         0.41432
C          5.40549        17.30389         0.97220
C          3.89955        19.29821         1.06972
C          5.19268        18.71227         0.73427
C          6.25528         2.00972        -0.81273
C          6.16836         3.43832        -0.53331
C          7.47714         1.33331        -0.65231
C          7.27666         4.12505        -0.03798
C          5.97933         6.32084        -0.05260
C          5.94876         7.82279        -0.32415
C          7.24304         5.57503         0.28114
C          7.20591         8.44797         0.24808
C          5.85627        10.61824         0.12706
C          5.85678        12.08470        -0.15894
C          7.17925         9.94001         0.30142
C          7.12430        12.78712        -0.51286
C          6.20319        14.97201         0.47770
C          6.20958        16.48710         0.22389
C          7.33241        14.25687        -0.28258
C          7.30002        17.20174        -0.45812
C          6.24125        19.39577         0.13892
C          7.41218        18.67017        -0.27437
C          8.62847         1.97977        -0.14017
C          8.48438         3.37905         0.30828
C          9.87400         1.35064        -0.05689
C          9.78124         4.16618         0.60836
C          8.53232         6.33424         0.26197
C          8.48788         7.69644         0.06951
C          9.79827         5.63032         0.40162
C          9.72652         8.41743        -0.29963
C          8.41864        10.64839        -0.11375
C          8.25594        11.86081        -0.69416
C          9.71323         9.92111        -0.38933
C         10.07621        12.95489        -0.57389
C          8.55098        14.91438        -0.41528
C          8.61099        16.39692        -0.59340
C          9.85972        14.27143        -0.29080
C          9.84783        17.15510        -0.47519
C          8.63108        19.29305        -0.51085
C          9.86102        18.55491        -0.57184
C         11.06821         2.06297         0.26956
C         11.04119         3.44718         0.46180
C         12.35223         1.39635         0.22579
C         12.26083         4.18575         0.83962
C         11.02215         6.29589         0.35104
C         11.03265         7.68603        -0.16015
C         12.28824         5.65206         0.62596
C         12.30965         8.46424        -0.11450
C         11.03147        10.62159        -0.21965
C         11.06867        12.09039         0.04253
C         12.20791         9.94594        -0.07892
C         12.32602        12.82102         0.50167
C         11.02689        15.04772         0.21181
C         11.16475        16.42685        -0.40384
C         12.31814        14.32162         0.50115
C         12.27831        17.23309         0.28414
C         11.12806        19.25134        -0.60896
C         12.34029        18.62577        -0.30927
C         13.53451         2.02633         0.52015
C         13.54567         3.42631         1.03739
C         14.79135         1.30554         0.45020
C         14.85335         4.23333         1.28024
C         13.51990         6.32372         0.57830
C         13.51259         7.84407         0.58821
C         14.78803         5.64106         0.64573
C         14.81025         8.48634         0.16480
C         13.49343        10.69584        -0.12420
C         13.58043        12.12273         0.20689
C         14.79918         9.93243        -0.12437
C         14.76408        12.82752         0.03354
C         13.60595        15.02955         0.31618
C         13.59687        16.47083         0.22941
C         14.78964        14.28897         0.14054
C         14.78510        17.16794         0.15266
C         13.58378        19.27792        -0.37181
C         14.80656        18.59813        -0.10375
C         15.96165         1.97822         0.52942
C         16.11563         3.41743         0.92974
C         17.23238         1.64553         1.26575
C         17.21549         4.17931         0.21642
C         15.98673         6.34430         0.40128
C         16.00254         7.78573         0.18430
C         17.24913         5.66222         0.30534
C         17.26355         8.48129         0.01420
C         16.02820        10.72317         0.00713
C         16.00466        12.09493        -0.12625
C         17.28275         9.95830         0.10844
C         17.22528        12.85865        -0.58682
C         16.04748        14.97975         0.06414
C         16.07063        16.44031         0.45507
C         17.24723        14.30868        -0.17147
C         17.30696        17.15964        -0.00131
C         16.03345        19.27211        -0.17811
C         17.28971        18.58108        -0.13468
C         18.45602         1.90337         0.34705
C         18.48219         3.40822         0.06223
C         19.79852         1.36632         0.78072
C         19.75576         4.14594         0.29803
C         18.44225         6.34936         0.10526
C         18.47513         7.78466        -0.02099
C         19.74165         5.64675         0.24128
C         19.75093         8.44901        -0.24672
C         18.56198        10.69031        -0.14538
C         18.54894        12.15367        -0.39003
C         19.73877         9.89144        -0.57909
C         19.72330        12.84242        -0.47447
C         18.49711        15.00310        -0.21433
C         18.51210        16.44386        -0.13309
C         19.72782        14.30024        -0.37867
C         19.74956        17.14394        -0.26708
C         18.50686        19.26719        -0.30026
C         19.74176        18.57366        -0.32199
C         20.96730         2.00460         0.52764
C         21.02679         3.41127         0.17403
C         22.18090         4.13661        -0.01619
C         21.01099         6.32179        -0.10041
C         20.96750         7.76252        -0.31553
C         22.15936         5.55656        -0.19633
C         22.19843         8.50838        -0.47816
C         21.03105        10.64744        -0.83336
C         21.04942        12.18533        -0.85956
C         22.25266         9.85719        -0.64937
C         22.19179        12.85753        -0.14742
C         20.96107        14.98058        -0.27030
C         20.98630        16.42627        -0.28463
C         22.15857        14.20383        -0.00584
C         22.18869        17.15767        -0.35682
C         20.98193        19.26417        -0.41209
C         22.17658        18.55835        -0.42333
O          8.92874         3.65561         1.68021
O          7.16914         9.11905         1.53784
O          9.61328         9.09916        -1.59799
O          6.14754        12.44463        -1.59048
O          2.09520         9.02750         1.54180
O         12.66341         3.66227         2.18595
O         19.75430         4.93190         1.54293
O         11.46141        14.87291         1.58639
O          4.25693         6.21962        -1.82249
O          7.75730        16.75615        -1.75625
O          9.27290        12.33454        -1.53044
O         11.90589         7.81598        -1.34545
O         14.13962        10.31337        -1.39972
O         18.16146        10.40007         1.23919
O          6.26243         5.95421         1.32571
O          4.60418        16.71771         1.96430
O         20.18498        10.16281        -1.94731
O         16.92618         2.84128         2.10349
O         11.38190        12.30207         1.47125
O         17.67736         3.73313        -1.12110
O         16.15680        16.43568         1.94059
H         16.99846        15.99130         2.17950
O         14.95089         4.52965         2.68564
H         14.04638         4.41155         3.06686
O         11.94309        17.45379         1.67145
H         11.88579        16.56869         2.10831
O          6.10386         8.05702        -1.74238
H          5.36730         7.58881        -2.20798
O         11.60262        16.21232        -1.77995
H         10.81236        16.06181        -2.34096
O          6.61321        14.80013         1.87421
H          5.95833        15.29361         2.42219
O         21.21035        12.54268        -2.26852
H         20.67017        11.89750        -2.78066
O         17.05772        12.88388        -2.05586
H         17.74912        13.47724        -2.42049
O         18.17547         1.20332        -0.89162
H         17.76092         1.86226        -1.49864
O         13.33761         8.22888         1.99444
H         14.04117         7.79125         2.52051
H          0.57428         1.39397        -2.19503
H          0.35974         3.76231        -1.50801
H          2.76152         0.21954        -2.07348
H          0.28365         5.16623         0.08101
H          0.22841         7.36475         1.25361
H          0.05331        10.48073         1.11929
H          0.05499        12.87868         0.42662
H          0.20390        14.84975        -0.02092
H          0.39990        17.28601         0.28927
H          1.79863        19.25742         1.28247
H          5.17211         0.26531        -1.52608
H          3.87287        20.39812         1.13079
H          7.53939         0.26843        -0.92190
H          6.20086        20.48573        -0.00366
H          9.95503         0.28915        -0.33383
H          8.68805        20.39066        -0.45273
H         12.37788         0.34500        -0.09839
H         11.12351        20.31948        -0.87720
H         14.77126         0.20688         0.39814
H         13.62514        20.33234        -0.68778
H         17.27391         0.70073         1.85401
H         16.03894        20.35799        -0.35655
H         19.81878         0.32155         1.12677
H         18.50334        20.36343        -0.39359
H         21.92114         1.48634         0.71249
H         23.15151         3.62109        -0.05212
H         23.11998         6.04012        -0.42173
H         23.14792         7.96394        -0.38240
H         23.22742        10.36549        -0.64520
H         23.09400        12.29060         0.12277
H         23.03519        14.72543         0.40629
H         23.15232        16.63089        -0.38446
H         20.98441        20.36228        -0.46448
H         23.13008        19.10102        -0.49024
