         252
 CSIRO Nanostructure Databank - Neutral Graphene Oxide Data Set
C         30.30831        31.54827        -0.69818
C         30.65633        32.75407        -0.34867
C         30.60962        36.03648         0.29941
C         30.62260        37.25360         0.09253
C         30.35548        40.35283        -0.27173
C         30.29692        41.56967        -0.05626
C         32.72631        28.99056         0.08544
C         31.58437        29.35712        -0.24847
C         32.82274        31.69593         0.88846
C         30.92987        30.58012         0.08458
C         32.82249        33.10831         0.51663
C         31.60856        33.68295        -0.04718
C         32.87095        35.84347        -0.47732
C         31.54272        35.09343        -0.52571
C         32.86116        37.30574        -0.76920
C         31.47313        38.04606        -0.82691
C         32.77722        40.26870        -0.12908
C         31.54027        39.54051        -0.60342
C         32.70759        41.67376         0.46528
C         31.34881        42.41630         0.51194
C         32.65645        44.38285         0.04755
C         31.56019        43.85368         0.26991
C         35.48776        27.44422         0.06072
C         35.19129        28.76235         0.46978
C         34.00993        29.47462         0.49431
C         35.26004        31.62935         0.90757
C         33.97572        30.91471         0.80097
C         35.28792        33.15221         0.73191
C         34.02534        33.82903         0.38979
C         35.30836        35.95021        -0.04924
C         34.04843        35.21085        -0.08434
C         35.36381        37.33434        -0.13480
C         34.12080        38.07624        -0.46808
C         35.33102        40.21541         0.25256
C         34.04362        39.47962         0.06388
C         35.32116        41.71519         0.34634
C         34.01610        42.45517         0.44819
C         35.18941        44.58390        -0.08755
C         34.01135        43.92252         0.05415
C         35.48608        45.96649        -0.26361
C         37.85630        27.36877         0.11255
C         36.53749        26.78004        -0.07498
C         37.81298        28.68535         0.52467
C         36.51944        29.41090         0.94182
C         37.79279        31.61605         0.84139
C         36.49284        30.88911         0.42426
C         37.77860        33.09692         0.51323
C         36.57896        33.78711         0.39948
C         37.77517        35.99178         0.52165
C         36.62292        35.20849        -0.09519
C         37.81731        37.45182         0.23861
C         36.60819        38.08115        -0.02597
C         37.85368        40.32173         0.08819
C         36.59040        39.56820        -0.31081
C         37.84457        41.71298         0.11948
C         36.54779        42.43120        -0.23559
C         37.76627        44.63215         0.49446
C         36.49708        43.87301         0.23379
C         37.72950        46.17834         0.48938
C         36.50640        46.66434        -0.18115
C         40.30756        24.64466        -0.74311
C         39.26658        25.30630        -0.49695
C         40.35557        27.32213        -0.16101
C         39.10146        26.66928        -0.16553
C         40.38382        28.73369         0.31798
C         39.10487        29.42179         0.84683
C         40.27860        31.67510         0.40518
C         39.01304        30.87888         0.24250
C         40.25425        33.04183         0.64333
C         39.03260        33.77196         0.61524
C         40.34175        35.96103         0.63417
C         39.04845        35.24426         0.77386
C         40.32392        37.41397         0.41402
C         39.06935        38.16156         0.30197
C         40.30863        40.33615         0.30886
C         39.08294        39.58415         0.22699
C         40.30162        41.72780         0.41830
C         39.06167        42.47341         0.32770
C         40.28703        44.67144         0.41472
C         39.06639        43.89225         0.35876
C         40.21462        46.01833         0.71017
C         39.02065        46.90200         0.62256
C         40.43170        48.58863        -0.60227
C         39.45267        48.17556         0.02686
C         42.89368        24.73451        -1.07482
C         41.59648        25.22259        -0.79139
C         42.79006        27.42821        -0.76667
C         41.58425        26.66561        -0.54982
C         42.70359        28.90136        -0.79059
C         41.55703        29.56719        -0.10067
C         42.79629        31.70591         0.14724
C         41.48585        31.08388        -0.26763
C         42.81687        33.06471         0.64031
C         41.52735        33.75908         1.05707
C         42.80768        35.86467         0.42143
C         41.50662        35.23250         0.69336
C         42.79244        37.35059         0.17738
C         41.52359        38.09361         0.30763
C         42.84872        40.21394         0.51492
C         41.58096        39.57120         0.00259
C         42.85616        41.68089         0.69911
C         41.57078        42.47524         0.68514
C         42.97188        44.67102         0.12917
C         41.63431        43.99391         0.57573
C         42.99032        45.97608        -0.63749
C         42.08470        46.96483        -0.21967
C         42.71193        48.36991        -1.94945
C         41.76848        48.16723        -0.92485
C         43.92889        25.44045        -1.15951
C         45.25533        27.64828        -1.18966
C         44.05385        26.84887        -1.06271
C         45.25251        29.02051        -1.02053
C         43.97446        29.72229        -0.81021
C         45.21416        31.45810         0.60428
C         43.96092        31.03279        -0.11966
C         45.29452        32.98096         0.77416
C         44.03638        33.72235         0.74017
C         45.27540        35.83884         0.94119
C         44.08364        35.17387         0.78767
C         45.32405        37.31837         0.74880
C         44.09244        38.07395         0.33510
C         45.32695        40.20769         0.66713
C         44.03337        39.53302         0.57183
C         45.37385        41.57932         0.17846
C         44.15395        42.37507         0.38385
C         45.12376        44.04793        -1.23945
C         44.17276        43.79211        -0.08958
C         45.01291        45.34706        -2.01141
C         43.95007        46.30462        -1.63661
C         43.68397        47.57961        -2.15875
C         47.64369        27.84632        -1.34338
C         46.60519        27.17918        -1.47091
C         47.93762        29.27105        -1.52886
C         46.42602        29.98198        -1.23109
C         47.65086        31.47394         0.35336
C         46.47480        30.93690        -0.05974
C         47.65441        32.59983         1.35371
C         46.48847        33.58746         1.06920
C         47.78623        35.91590         1.45970
C         46.61918        35.11009         0.85479
C         47.79067        37.41239         1.40092
C         46.49569        38.11808         1.24648
C         47.76358        40.39896         0.97700
C         46.49995        39.55445         0.91214
C         47.80021        41.28943        -0.29040
C         46.51117        42.08199        -0.36762
C         47.71683        44.01563        -1.44800
C         46.41840        43.18850        -1.37851
C         47.37779        45.19187        -2.13757
C         46.33126        45.72859        -2.59214
C         49.71313        30.23326        -3.03683
C         48.42842        29.53528        -3.02623
C         50.01145        31.90230        -0.31854
C         48.89349        31.05266        -0.22711
C         50.05380        33.08474         0.55421
C         48.99964        33.24916         1.40193
C         50.26390        36.09961         1.81296
C         48.97570        35.43076         1.91235
C         50.32221        37.43917         1.56339
C         49.08146        38.13353         1.00914
C         50.28910        40.38019         0.92900
C         49.04288        39.63023         1.16068
C         50.26869        41.63490         0.08692
C         49.03712        42.17982        -0.33432
C         50.23324        44.00649        -1.19823
C         48.93647        43.45701        -1.02180
C         50.58168        30.78845        -2.34939
C         52.11780        32.54530        -1.14469
C         51.03310        31.63203        -1.30256
C         52.26726        33.42903        -0.26933
C         51.14818        34.21306         0.37859
C         52.62278        36.00720         1.39343
C         51.47428        35.07513         1.63973
C         52.63815        37.22734         1.19562
C         51.65042        38.21485         1.74789
C         52.68219        40.26911         0.42616
C         51.61520        39.63400         1.20493
C         52.65956        41.45630         0.03170
C         51.52773        42.25984        -0.28897
C         51.35521        43.50877        -0.92103
O         48.97747        29.75364        -0.66411
O         41.39346        46.70955         0.97218
O         36.94154        44.07849         1.59339
O         31.93143        41.87398         1.69410
O         43.10907        29.57345        -2.02477
O         35.36182        32.48396         2.07384
O         38.08921        46.80669         1.73187
O         41.57704        43.34442         1.87040
O         45.09522        37.69239        -0.67041
O         31.59478        31.11583         1.26537
O         34.85726        42.22093         1.62244
O         41.48415        29.04048         1.25825
O         42.83258        36.41658        -0.95382
O         32.39028        40.24243        -1.55312
O         44.43924        44.11662        -2.54837
O         47.04782        37.88604         2.59144
O         44.11451        44.70576         1.04540
O         47.73722        29.21969        -3.96706
O         38.16124        35.68029         1.88790
O         33.70503        37.81277        -1.85286
O         34.68420        39.55685         1.37027
O         43.72685        42.15779         1.76340
O         49.05219        34.14404         2.46195
O         51.09904        40.56214         2.19061
O         50.63004        35.11697        -0.57836
H         50.51051        34.66293        -1.43770
O         38.83451        30.63750        -1.18143
H         39.57720        31.07437        -1.67876
O         47.40990        32.04803         2.67962
H         47.73845        32.70967         3.32977
O         49.20269        37.93435        -0.44987
H         48.74800        38.68366        -0.91101
O         47.63684        41.32511         2.08671
H         47.65243        40.80891         2.91998
O         31.01519        35.08668        -1.83029
H         30.88541        36.02094        -2.13730
O         47.88115        40.39972        -1.43427
H         47.51593        40.88313        -2.21401
O         41.53853        33.69774         2.52066
H         40.64526        33.94489         2.84392
O         30.96164        37.85013        -2.15850
H         31.52478        38.37844        -2.76658
O         51.86321        38.29643         3.15630
H         51.74721        39.23384         3.43309
O         36.42170        42.46364        -1.67358
H         36.44540        41.52881        -2.00625
O         36.97746        35.14949        -1.52302
H         36.23948        34.71717        -2.00351
O         36.45393        29.39112         2.37092
H         37.36207        29.56739         2.72334
O         36.45908        39.72503        -1.76877
H         37.13105        39.15632        -2.20232
O         46.36355        42.48821        -2.65190
H         45.74949        43.00387        -3.23345
O         37.91825        31.57246         2.27628
H         37.11534        32.01758         2.64554
O         46.12616        30.77213        -2.38142
H         45.97242        30.18083        -3.15208
O         39.20421        29.44124         2.27540
H         40.15340        29.57202         2.50846
O         46.94434        35.17120        -0.58450
H         46.55509        35.99139        -0.96312
O         41.68714        39.66381        -1.46898
H         42.28282        38.94499        -1.77604
O         36.28873        30.88973        -0.99933
H         37.13454        30.63409        -1.44551
O         45.10512        30.83241         1.90999
H         45.87157        31.13961         2.45787
O         41.28562        31.39127        -1.68932
H         41.99358        30.90965        -2.19511
O         51.65670        34.23684         2.74478
H         51.98033        34.76751         3.50091
