         651
 CSIRO Nanostructure Databank - Neutral Graphene Oxide Data Set
C          6.13354        31.33562         1.07435
C          6.19527        32.67133         1.36025
C          8.63682        27.15708         0.14654
C          8.52112        28.52288         0.04483
C          7.32629        29.21387         0.48497
C          8.59289        31.30070         0.77349
C          7.30700        30.57405         0.71921
C          8.60460        32.74992         0.97430
C          7.43361        33.43490         1.30511
C          8.62095        35.61272         1.47116
C          7.44847        34.84537         1.55608
C          8.68794        37.00408         1.70327
C         11.10218        22.89776        -0.44326
C         11.15321        24.27818        -0.24955
C          9.95210        25.07800        -0.00783
C         10.69036        27.17712        -1.23904
C          9.79343        26.41792        -0.30715
C         10.90659        28.71456        -1.08528
C          9.56128        29.40423        -0.63715
C         11.01146        31.46042        -0.10034
C          9.82217        30.63642         0.23132
C         11.02391        32.84494         0.13184
C          9.89352        33.44946         0.89064
C         11.03797        35.73248         0.69537
C          9.89296        34.92502         1.15604
C         11.08753        37.04748         1.06352
C          9.91103        37.72645         1.61388
C         11.12919        39.91448         1.75035
C          9.95855        39.10278         1.90414
C         11.11199        41.28964         1.88776
C         13.45588        18.54225        -1.45547
C         13.44624        19.93953        -0.99579
C         12.22643        20.73687        -0.88970
C         13.53550        22.82286        -0.92725
C         12.28285        22.11837        -0.70752
C         13.55587        24.24148        -0.86209
C         12.42712        24.93109        -0.35706
C         13.50195        27.11894        -0.69705
C         12.60684        26.29832         0.03727
C         13.42139        28.58017        -0.73571
C         12.15688        29.28903        -0.26097
C         13.32695        31.51580        -0.83298
C         12.17723        30.78708        -0.51361
C         13.31906        32.93231        -0.70818
C         12.16781        33.59490        -0.20320
C         13.45917        35.74838         0.02284
C         12.10284        35.11143        -0.18832
C         13.51453        37.21445         0.27719
C         12.38386        37.77086         1.06166
C         13.64710        39.99198         1.15231
C         12.41245        39.20877         1.48536
C         13.53684        41.48357         1.08468
C         12.27145        42.14216         1.52020
C         13.55396        44.35015         1.55343
C         12.38272        43.54871         2.09147
C         13.53597        45.73912         1.67636
C         15.87954        14.36208        -1.15926
C         15.82486        15.74114        -1.37738
C         14.63061        16.40168        -1.71273
C         15.98979        18.45711        -1.42686
C         14.62537        17.82073        -1.60447
C         15.89025        19.94627        -1.81212
C         14.77489        20.69188        -1.11711
C         15.87302        22.86751        -1.71180
C         14.72635        22.15344        -1.26776
C         15.82737        24.28626        -1.76598
C         14.70991        24.97867        -1.25132
C         15.56031        27.15703        -2.04443
C         14.60498        26.42566        -1.33777
C         15.06548        28.50386        -2.53022
C         14.35897        29.30220        -1.45035
C         15.72393        31.60928        -1.69350
C         14.61985        30.75908        -1.05050
C         15.67601        33.03833        -1.46932
C         14.54153        33.66799        -1.00899
C         15.79992        35.89879        -0.97718
C         14.64398        35.08060        -0.57869
C         15.67489        37.39422        -1.00584
C         14.62617        37.92980        -0.04118
C         15.74313        40.21577        -0.32111
C         14.77175        39.32977         0.40253
C         15.80688        41.64340         0.09476
C         14.86695        42.21946         1.15020
C         15.81569        44.48580         0.61406
C         14.69817        43.71656         1.01417
C         15.84649        45.86529         0.86079
C         14.69395        46.51940         1.39703
C         15.88155        48.70705         1.39517
C         14.72664        47.91304         1.67186
C         15.90878        50.10498         1.66621
C         18.13762        10.30282         0.69553
C         17.94999        11.75400         0.68558
C         16.91579        12.38457        -0.13606
C         18.15655        14.52515        -0.17738
C         16.97580        13.72416        -0.49166
C         18.30276        15.82580        -0.93846
C         17.01256        16.63224        -1.11342
C         18.43461        18.55946        -1.77036
C         17.16403        17.76218        -2.12773
C         18.40643        20.00437        -2.11735
C         17.15869        20.74817        -1.91759
C         18.34736        22.90647        -2.03315
C         17.12147        22.14279        -1.96398
C         18.31897        24.35826        -2.31006
C         16.95772        25.05625        -2.32392
C         18.18348        27.39381        -2.29633
C         16.86346        26.56772        -2.39789
C         18.17200        28.86192        -2.02858
C         17.10501        29.65449        -2.36420
C         18.19972        31.73386        -1.67045
C         16.96820        31.04464        -1.98633
C         18.14760        33.18577        -1.26866
C         16.90762        33.83726        -1.88797
C         18.16655        36.03839        -1.56871
C         16.94022        35.30736        -1.49255
C         18.20602        37.42774        -1.18355
C         17.00862        38.09660        -0.92200
C         18.26378        40.28893        -0.69537
C         16.95854        39.60067        -1.03740
C         18.24837        41.70723        -0.48068
C         17.06157        42.37581        -0.14401
C         18.22589        44.61677        -0.33151
C         16.96822        43.83719        -0.07405
C         18.29592        46.03196         0.10320
C         17.16027        46.60352         0.91233
C         18.20042        48.90607         0.50346
C         17.02941        48.09360         0.84254
C         18.30231        50.25715         1.06371
C         17.11212        50.85645         1.58456
C         18.38505        52.91466         2.00171
C         17.16323        52.21031         1.99107
C         18.41823        54.28798         2.38106
C         20.51640         6.30424         2.23676
C         20.54317         7.63424         1.87224
C         19.36761         8.21109         1.12225
C         20.49648        10.50131         1.38843
C         19.29304         9.72180         1.13973
C         20.47155        11.88079         1.18492
C         19.20405        12.60627         1.00726
C         20.38766        14.83492         0.92317
C         19.22367        13.98881         0.47801
C         20.46207        16.19759         0.27313
C         19.47207        16.68535        -0.52449
C         20.70953        18.84896        -0.79861
C         19.51156        18.04462        -1.07194
C         20.81346        20.17614        -1.27707
C         19.68139        20.82144        -1.94628
C         20.76670        23.05255        -1.64134
C         19.58031        22.28704        -1.86215
C         20.70158        24.49700        -1.62245
C         19.52545        25.16117        -2.03881
C         20.42584        27.32383        -0.92889
C         19.35353        26.61347        -1.72960
C         20.35001        28.85733        -0.67324
C         19.49379        29.54648        -1.74714
C         20.48445        31.79442        -0.90218
C         19.34317        31.02933        -1.46286
C         20.60917        33.23184        -1.29839
C         19.43754        33.91749        -1.57998
C         20.74402        36.17692        -2.07495
C         19.38826        35.32652        -2.13605
C         20.69699        37.47302        -1.27745
C         19.48131        38.15797        -1.10744
C         20.72416        40.30469        -0.78246
C         19.48236        39.58415        -0.84202
C         20.72898        41.75632        -0.70002
C         19.49211        42.45338        -0.57429
C         20.68457        44.59516        -0.63590
C         19.49085        43.86680        -0.50168
C         20.62332        46.07371        -0.69116
C         19.42392        46.74444        -0.13863
C         20.76953        48.93254         0.15204
C         19.46542        48.22623         0.01318
C         20.76989        50.29315         0.62285
C         19.54861        50.93372         1.09354
C         20.90428        52.89970         1.96346
C         19.59291        52.24013         1.63432
C         20.80089        54.39951         1.86539
C         19.60264        55.05563         2.24658
C         20.77148        57.19494         2.68787
C         19.60090        56.44675         2.61581
C         20.84402        58.52515         3.19432
C         22.81146         3.68273         3.63788
C         21.65492         4.29517         3.15317
C         22.86843         6.41217         2.93924
C         21.66559         5.66004         2.79268
C         22.89250         7.79915         2.60354
C         21.71757         8.42786         2.08713
C         22.92764        10.55196         1.97962
C         21.73125         9.82450         1.78001
C         23.01351        11.94355         1.50014
C         21.73951        12.60974         1.00503
C         22.93559        14.89825         1.16453
C         21.72088        14.10624         0.81893
C         22.85784        16.39688         1.27159
C         21.61931        17.03766         0.66012
C         22.98911        19.04234         0.13513
C         21.76959        18.33615        -0.00571
C         23.07331        20.37017        -0.37208
C         21.93944        20.97399        -0.97964
C         23.15406        23.13152        -1.05020
C         21.95785        22.38607        -1.26610
C         23.11386        24.56602        -1.06011
C         21.86267        25.21664        -1.20104
C         23.01550        27.37640        -0.73014
C         21.73815        26.58414        -0.58568
C         22.91616        28.79613        -0.40194
C         21.68916        29.55130        -0.60988
C         22.97557        31.75844        -0.51636
C         21.70847        31.01224        -0.50409
C         23.02038        33.17613        -0.77147
C         21.86485        33.88926        -1.21300
C         23.18728        36.06100        -1.22032
C         22.03057        35.26547        -1.81287
C         23.20035        37.45400        -1.20952
C         21.93933        38.18124        -1.15353
C         23.20243        40.30059        -0.91376
C         21.95006        39.58666        -0.91617
C         23.22848        41.75922        -0.49690
C         21.93864        42.50351        -0.74580
C         23.16134        44.71067        -0.82627
C         21.92756        43.92361        -0.75836
C         23.17822        46.07981        -0.67679
C         21.91849        46.85319        -0.67253
C         23.17580        49.03926        -0.46202
C         21.93482        48.27128        -0.23447
C         23.17980        50.48164        -0.01907
C         21.98378        51.04115         0.65325
C         23.29572        53.08882         1.10842
C         22.06746        52.33370         1.18838
C         23.31007        54.47217         1.45471
C         22.00963        55.16199         1.62815
C         23.30698        57.15059         2.54446
C         21.99697        56.61706         2.09670
C         23.33834        58.50737         3.17075
C         22.05419        59.23216         3.32279
C         23.36026        61.28255         3.66447
C         22.12170        60.60486         3.62080
C         23.99951         4.40310         3.76655
C         25.25437         6.53248         3.52731
C         24.04820         5.77135         3.42099
C         25.28830         7.87632         3.21536
C         24.09865         8.54301         2.77398
C         25.32086        10.70439         2.62601
C         24.11029         9.93634         2.47063
C         25.28069        12.13752         2.44954
C         24.15935        12.76859         1.94913
C         25.22556        15.11376         2.32456
C         24.05119        14.24733         1.92153
C         25.33905        16.49074         1.75440
C         24.14595        17.12222         1.23498
C         25.39653        19.16528         0.70737
C         24.16106        18.44226         0.74174
C         25.46677        20.43505         0.13525
C         24.29715        21.09229        -0.32085
C         25.58497        23.20382        -0.60904
C         24.35095        22.46867        -0.69029
C         25.57521        24.62284        -0.74766
C         24.32420        25.30607        -0.86914
C         25.50793        27.49978        -0.76454
C         24.26063        26.75150        -0.79620
C         25.49580        28.86656        -0.54203
C         24.21136        29.55593        -0.23536
C         25.34760        31.71281        -0.04291
C         24.15702        31.03152        -0.34558
C         25.30929        33.12806        -0.02485
C         24.26772        33.86443        -0.59026
C         25.75442        36.04965        -1.15775
C         24.44103        35.27690        -1.08741
C         25.70559        37.53070        -1.23862
C         24.45633        38.19346        -1.19363
C         25.64540        40.40254        -1.28738
C         24.39750        39.62963        -1.13096
C         25.65622        41.85842        -1.03599
C         24.46834        42.51340        -0.91533
C         25.68494        44.67603        -1.19954
C         24.37306        43.95768        -1.32986
C         25.69261        46.14394        -1.00781
C         24.45028        46.86002        -0.62386
C         25.67083        49.04923        -0.75403
C         24.48874        48.35371        -0.66578
C         25.60848        50.58504        -0.71275
C         24.55397        51.01652         0.35431
C         25.70648        53.22700         0.71626
C         24.51248        52.49616         0.66980
C         25.73820        54.55564         1.19814
C         24.51699        55.18537         1.52071
C         25.82255        57.09825         2.56083
C         24.54374        56.67288         1.80761
C         25.79355        58.59184         2.80358
C         24.62886        59.24752         3.12313
C         24.56714        60.65503         3.40557
C         26.60277         8.61377         3.33278
C         27.74748        10.80394         3.01438
C         26.54335        10.08369         2.98495
C         27.78498        12.21294         2.90181
C         26.47445        12.91213         2.88046
C         27.77153        15.15576         2.81494
C         26.46469        14.40965         2.80926
C         27.78179        16.60487         2.42074
C         26.54260        17.17474         1.81010
C         27.94995        19.15391         0.99302
C         26.60401        18.56083         1.30729
C         28.02241        20.34517         0.08933
C         26.75651        21.06245        -0.22284
C         28.05628        23.18266        -0.52585
C         26.81318        22.51478        -0.45316
C         28.04381        24.60523        -0.72555
C         26.83053        25.30926        -0.78780
C         28.05686        27.50395        -0.60856
C         26.80735        26.79350        -1.12991
C         28.04213        28.98635        -0.37016
C         26.69895        29.65829        -0.37355
C         28.55846        32.05860        -0.18591
C         26.55528        30.94529         0.11562
C         28.42946        33.41378        -0.61222
C         27.31270        34.19514        -0.35218
C         28.24193        36.18346        -1.31504
C         27.10577        35.48118        -0.90136
C         28.18969        37.58885        -1.48948
C         26.94920        38.23225        -1.35483
C         28.18825        40.40903        -0.93122
C         26.94736        39.70336        -1.44706
C         28.14278        41.90102        -1.15052
C         26.93985        42.55807        -1.17463
C         28.13322        44.75666        -1.34010
C         26.88411        44.01407        -1.20517
C         28.04227        46.05854        -1.72596
C         26.85872        46.91269        -1.54749
C         28.31483        49.08846        -0.93763
C         26.96026        48.40182        -1.24346
C         28.25561        50.49090        -0.40956
C         26.95922        51.27049        -0.41049
C         28.24349        53.19981         0.76097
C         26.97155        52.61004         0.25015
C         28.23266        54.57817         1.08821
C         27.01568        55.27455         1.33962
C         27.03705        56.56526         1.84953
C         28.97517        12.94809         2.87492
C         30.24284        15.02286         2.52960
C         29.03386        14.36801         2.76518
C         30.34504        16.40904         2.20299
C         29.12868        17.32783         2.24686
C         30.46118        19.00312         0.95400
C         29.15903        18.23513         1.01566
C         30.51970        20.30604         0.28026
C         29.28729        21.10102         0.04251
C         30.61749        23.10130        -0.49660
C         29.30049        22.42076        -0.35142
C         30.63600        24.58768        -0.79309
C         29.32495        25.31926        -1.14964
C         30.53336        27.46178        -0.71886
C         29.35278        26.79290        -0.81192
C         30.57676        28.92977        -0.92500
C         29.31243        29.72785        -0.76802
C         30.68710        31.81548        -1.30652
C         29.49594        31.20744        -0.73670
C         30.73219        33.17084        -1.51804
C         29.48784        33.95720        -1.46264
C         30.74370        36.20805        -1.63362
C         29.47244        35.45876        -1.65020
C         30.75064        37.56473        -1.65470
C         29.46349        38.31204        -1.75147
C         30.74029        40.45174        -1.08560
C         29.48512        39.79836        -1.45893
C         30.61781        41.86217        -0.55431
C         29.48662        42.59176        -1.33677
C         30.73650        44.78093        -0.74040
C         29.42433        44.07484        -0.99909
C         30.90132        46.25366        -0.72866
C         29.89695        47.12453        -1.19143
C         30.66960        48.92262         0.17540
C         29.58906        48.34377        -0.60052
C         30.54514        50.21642         0.68051
C         29.22554        50.91234         0.70104
C         29.36730        52.40315         0.83412
C         31.55023        17.01217         1.89547
C         32.87327        19.09664         1.44443
C         31.63112        18.38696         1.41842
C         32.98517        20.43374         1.03030
C         31.84699        21.05312         0.32461
C         32.98529        23.24073         0.30149
C         31.82359        22.51010         0.12542
C         32.99965        24.67253         0.05838
C         31.82411        25.32259        -0.31782
C         33.08579        27.53406        -0.31397
C         31.78580        26.78222        -0.33505
C         33.13843        28.82838        -1.10218
C         31.90098        29.69559        -0.78061
C         33.23964        31.70596        -1.54797
C         31.89627        30.96024        -1.64952
C         33.28397        33.21632        -1.53157
C         31.98804        33.93893        -1.39000
C         33.24425        36.16119        -1.20539
C         31.96653        35.43348        -1.33280
C         33.25934        37.52842        -1.16879
C         32.05215        38.35700        -1.59538
C         33.16562        40.32745        -0.38720
C         31.87098        39.55292        -0.62610
C         33.16807        41.83625        -0.31808
C         31.93812        42.61208        -0.59557
C         33.23855        44.69066        -0.33029
C         31.98873        43.97858        -0.62506
C         33.20978        46.04733         0.03371
C         32.01833        46.84332        -0.06714
C         31.90136        48.19388         0.31558
C         34.14498        21.22137         1.19236
C         35.38736        23.32194         0.88496
C         34.19509        22.58560         0.79803
C         35.45975        24.70374         0.53304
C         34.25028        25.40174         0.18248
C         35.55539        27.48067        -0.14977
C         34.32842        26.76779        -0.14111
C         35.59768        28.89172        -0.45216
C         34.42147        29.60648        -0.85291
C         35.65161        31.75057        -0.92838
C         34.45196        30.99708        -1.07624
C         35.67562        33.18802        -0.87169
C         34.48441        33.90904        -1.04126
C         35.68795        36.08692        -0.45093
C         34.37952        35.33666        -0.71814
C         35.69807        37.53989        -0.63218
C         34.48010        38.24209        -0.80603
C         35.68311        40.36224        -0.44676
C         34.45796        39.63983        -0.59365
C         35.65637        41.79578        -0.36626
C         34.47231        42.54119        -0.38376
C         34.45126        43.95194        -0.31267
C         36.67847        25.41170         0.55084
C         37.97519        27.51833         0.28756
C         36.75589        26.78870         0.21357
C         38.03131        28.89139        -0.00347
C         36.83917        29.57022        -0.41064
C         38.20781        31.75877        -0.52475
C         36.89644        30.98380        -0.80073
C         38.13169        33.20995        -0.34741
C         36.91907        33.91151        -0.56566
C         38.15024        36.05680        -0.27027
C         36.93409        35.32330        -0.46839
C         38.13003        37.47503        -0.26256
C         36.93597        38.23397        -0.46381
C         36.90682        39.65131        -0.43676
C         39.24661        29.64261         0.23060
C         40.47474        31.78432         0.49579
C         39.32270        31.01054         0.09022
C         40.48304        33.14631         0.43073
C         39.31114        33.91381         0.04582
C         39.33063        35.31172         0.01818
O         26.25254        13.72976         4.08484
O         10.33440        33.97453         2.20736
O         12.70471        38.15435         2.45217
O         29.77366        29.27259        -2.09422
O         23.53046        29.08290         0.96181
O         18.17212        12.37064         2.00548
O         26.29639        40.21382        -2.63484
O         14.82732        39.52045         1.85821
O         31.43330        20.31943        -0.88191
O         12.62365        42.01580         0.08550
O         17.24610        44.43847        -1.41198
O         16.53917        17.76088        -0.15905
O         25.40695        46.41568         0.42548
O         30.93124        23.60584        -1.84917
O         16.09277        29.21286        -3.20455
O         27.07484        52.48607        -1.22799
O         29.79601        44.38747         0.37459
O         21.89602        56.32013         0.68554
O         17.60859        27.03636        -3.56799
O         28.70842        50.25200        -1.76044
O         26.37750        33.77061         0.58705
O         11.06703        26.66780        -2.28779
O         27.32831        19.46884         2.25895
O         19.30462        26.69866        -0.22713
O         27.67907        16.21394         3.83631
O         22.65874        14.51127        -0.22090
O          9.56710        30.54340         1.65088
O         24.11497        14.90504         3.24096
O         19.25235        20.33537        -3.26825
O         31.85270        34.62127        -0.07903
O         21.85900        17.02083         2.11967
O         29.18255        34.54473        -2.77985
O         23.38650        57.26203         3.99594
O         27.62966        31.57543         0.73533
O         18.57832        48.87027        -0.95010
O         14.38294        20.16981         0.15847
O         20.92889        36.74975        -3.34805
O         29.14874        46.68438        -2.28269
O         33.46580        32.48155        -2.78640
O         34.78699        35.66522         0.64544
O         14.37787        35.07318         0.92389
O         27.43531        20.20116        -1.24748
O         29.41150        39.29702        -2.85976
O         26.70286        47.90858        -2.60112
O         28.08168        28.05129         0.76537
O         37.86864        31.28802        -1.86620
O         20.72827        31.56631         0.51659
O         17.53657        24.54890        -3.55906
O         22.67438        11.99646         0.06080
O         22.95008        50.15343        -1.40550
O         15.09745        41.24553        -1.14379
O         32.28235        27.48488         0.91095
O         25.19938        35.35196        -2.35540
O         21.14163        46.66194        -1.92189
O         33.07529        41.01167         0.92700
O         22.52598        34.94507        -3.13190
H         22.17232        35.69469        -3.70659
O         24.10069        43.87781        -2.78276
H         24.80146        43.32693        -3.19429
O         29.23907        25.32641        -2.61459
H         29.70561        24.51148        -2.92614
O         11.92121        26.64790         1.13026
H         12.08123        27.58624         1.41173
O         29.31570        18.18217         3.39200
H         28.90455        17.72491         4.16074
O         11.73604        35.49760        -1.55490
H         10.89123        35.05948        -1.78905
O         15.16012        30.60590         0.32444
H         15.42507        31.49584         0.64678
O         20.19769        15.00136         2.35572
H         19.39360        15.54022         2.50812
O         11.92815        29.19114         1.16244
H         12.45266        29.88483         1.61524
O         17.95724        33.23601         0.17422
H         18.69041        32.73817         0.59950
O         14.07786        28.24608        -3.54593
H         14.55714        27.95559        -4.35057
O         17.07118        17.46961        -3.51295
H         16.66863        18.25307        -3.95363
O         28.15588        40.15042         0.49787
H         28.87043        40.70235         0.91484
O         24.55075        57.35571         0.53055
H         23.73631        57.07951         0.04910
O         32.01222        30.15413         0.57916
H         32.02932        29.35457         1.16033
O         23.32376        41.70738         0.98074
H         22.53521        41.22620         1.31127
O         17.62659        46.37899         2.32240
H         16.88247        46.63175         2.91254
O         21.19299        52.59385         3.39929
H         20.39660        52.84760         3.91380
O         29.81949        42.52530        -2.74582
H         29.61702        41.62458        -3.08095
O         33.11631        28.39389        -2.47938
H         32.70626        29.11409        -3.02673
O         15.48617        42.00675         2.43913
H         14.88786        42.36505         3.12977
O         11.19919        29.15670        -2.42138
H         11.47086        28.34833        -2.93057
O         31.75815        30.58133        -3.03768
H         32.08980        31.33885        -3.57453
O         28.51443        50.44558         1.91888
H         29.08184        50.64556         2.69343
O         31.47274        38.96082         0.64010
H         31.77967        39.56571         1.35339
O         18.13543         7.63997         1.57486
H         17.97089         7.95172         2.48825
O         20.27789        29.40346        -2.97096
H         19.74133        29.72747        -3.72593
O         26.89035        26.87367        -2.58241
H         27.69995        26.37794        -2.86556
O          8.90826        29.90205        -1.82526
H          9.57155        29.83003        -2.55878
O         25.19192        51.01062        -2.00876
H         25.74201        51.78820        -2.26418
O         15.13807        37.69457        -2.35181
H         15.66110        38.45581        -2.72070
O         25.87133        56.43581         3.85723
H         25.04829        56.69291         4.34478
O         21.63658        26.32981         0.86082
H         20.70926        26.03781         1.02211
O         30.25160        41.80396         0.86401
H         31.07694        41.58876         1.35793
O         24.95707        50.35205         1.58472
H         24.42085        50.70989         2.32357
O         19.14891        35.13552        -3.55430
H         19.72818        35.84432        -3.99021
O         19.68446        29.05997         0.58662
H         20.27857        28.74800         1.30122
O         29.06912        17.38403        -0.15755
H         29.24852        17.92962        -0.95332
O         16.93248        33.71278        -3.31843
H         17.67558        34.26716        -3.67447
O         12.58508        43.41679         3.51343
H         11.84115        42.89622         3.88220
O         16.76566        39.86142        -2.47486
H         16.25043        40.70564        -2.53135
O         27.60308         7.95608         2.53278
H         27.29969         7.95996         1.60183
O         15.46336        19.79612        -3.22757
H         15.55147        20.67304        -3.66152
O         18.59958        15.35577        -2.29201
H         18.45475        16.08680        -2.93387
O         32.30990        38.87716        -2.91907
H         31.44373        39.17560        -3.28619
H          5.16502        30.81506         1.11302
H          5.27437        33.20976         1.62907
H          7.83630        26.59160         0.65055
H          6.40962        28.62234         0.63539
H          6.50256        35.34035         1.82230
H          7.77426        37.54339         1.99592
H         10.13402        22.37739        -0.39265
H          9.12059        24.57608         0.51558
H          9.02593        39.60182         2.20982
H         10.16502        41.79304         2.14035
H         12.48887        18.03112        -1.58395
H         11.25288        20.22607        -0.92522
H         11.42428        44.11497         1.91086
H         12.64484        46.23759         2.08569
H         14.98372        13.75981        -1.37686
H         13.69261        15.84318        -1.84854
H         13.83284        48.39867         2.08831
H         15.00151        50.59493         2.04821
H         17.31777         9.66039         0.33938
H         16.08559        11.76227        -0.50384
H         16.24114        52.71571         2.31306
H         17.48802        54.77866         2.70042
H         19.59954         5.72025         2.06756
H         19.47962         7.89169         0.04598
H         18.66085        56.87787         2.99081
H         19.90302        59.03962         3.44160
H         22.78840         2.61909         3.91355
H         20.72772         3.71482         3.04318
H         23.35755        62.35998         3.88284
H         21.19195        61.16816         3.78416
H         24.90735         3.90823         4.14014
H         26.17486         6.03047         3.85995
H         26.74248        59.15092         2.80218
H         25.50078        61.23527         3.40805
H         26.96125         8.53048         4.39564
H         28.68696        10.25165         3.16508
H         29.18465        55.07842         1.32308
H         28.00129        57.08348         1.97182
H         29.92849        12.39711         2.87784
H         31.16419        14.41946         2.49700
H         31.38886        50.67364         1.21967
H         30.33286        52.83045         1.14553
H         32.48646        16.43865         1.98129
H         33.74813        18.60421         1.89439
H         34.13944        46.52450         0.37810
H         32.74735        48.69405         0.80836
H         35.04439        20.76557         1.63318
H         36.30424        22.81357         1.21974
H         36.61748        42.33089        -0.32844
H         35.40173        44.49358        -0.19252
H         37.59924        24.88265         0.83979
H         38.89050        26.99800         0.60731
H         39.06837        38.01371        -0.06352
H         37.84990        40.20898        -0.33832
H         40.11114        29.09791         0.64063
H         41.36367        31.24418         0.85409
H         41.38492        33.70181         0.72708
H         40.26404        35.84736         0.24617
