         667
 CSIRO Nanostructure Databank - Neutral Graphene Oxide Data Set
C          6.00878        31.51982        -0.42681
C          6.01569        32.87959        -0.42043
C          8.42330        27.28691         0.22408
C          8.46795        28.65259        -0.11003
C          7.24783        29.38970        -0.34572
C          8.48872        31.48919        -0.75415
C          7.23107        30.75484        -0.51469
C          8.50905        32.96920        -0.67319
C          7.23374        33.66270        -0.53443
C          8.35436        35.86906        -0.66696
C          7.17699        35.03522        -0.44578
C          8.38523        37.25880        -0.25599
C         10.67463        23.14320         1.61043
C         10.71410        24.48941         1.33509
C          9.54344        25.22594         1.01481
C         10.79493        27.34759         0.83650
C          9.58347        26.61106         0.67754
C         10.86144        28.70967         0.49337
C          9.70851        29.34466        -0.03994
C         11.00937        31.51042        -0.19444
C          9.79577        30.73504        -0.48866
C         11.04508        32.92353        -0.75839
C          9.70860        33.64666        -0.64278
C         10.93248        35.86771        -0.34906
C          9.73256        35.11263        -0.75084
C         10.87181        37.24134        -0.15832
C          9.59768        37.97417        -0.14292
C         10.77159        40.10075         0.60300
C          9.56905        39.34939         0.12149
C         10.82090        41.56605         0.23292
C         13.25185        19.10079         0.04396
C         12.81478        20.16026         0.86136
C         11.95724        21.23185         0.72505
C         13.20931        23.01904         1.85976
C         11.87411        22.26585         1.84953
C         13.16321        24.52219         2.05252
C         12.04638        25.20269         1.23850
C         13.24261        27.40448         1.45370
C         11.91325        26.69762         1.61368
C         13.24066        28.79560         1.17092
C         12.08458        29.46657         0.71024
C         13.38373        31.60173         0.44976
C         12.11309        30.88065         0.36084
C         13.52128        32.98129        -0.19344
C         12.21600        33.74339        -0.25852
C         13.38559        35.89642         0.08902
C         12.17418        35.12081        -0.17253
C         13.34442        37.27093         0.18413
C         12.08903        37.99650         0.10023
C         13.30521        40.13144         0.45907
C         12.04802        39.36968         0.27094
C         13.25890        41.60955         0.65847
C         11.98503        42.32719         0.37063
C         13.22694        44.54662         0.20521
C         12.02505        43.71801         0.12326
C         13.30846        45.89791        -0.34426
C         15.67974        14.94342        -0.80691
C         15.70703        16.28522        -0.31949
C         14.54653        17.07577        -0.31497
C         15.70341        18.93288         0.79114
C         14.49555        18.38797         0.22884
C         15.78215        20.27807         1.35268
C         14.60272        20.95860         1.80471
C         15.70426        23.13090         1.84629
C         14.46308        22.38218         1.85506
C         15.69860        24.52639         1.79636
C         14.46346        25.26335         1.79363
C         15.74012        27.36371         1.27125
C         14.44455        26.65945         1.61522
C         15.75522        28.85114         1.54130
C         14.44563        29.61413         1.56333
C         15.81567        31.65325         0.82219
C         14.50186        30.96556         0.89099
C         15.82553        33.12890         0.81921
C         14.65273        33.78178         0.41601
C         15.84156        35.89465         0.54497
C         14.63724        35.18546         0.33737
C         15.87740        37.32722         0.08205
C         14.60808        38.05483         0.52911
C         15.87931        40.20091        -0.27031
C         14.51013        39.42529        -0.16800
C         15.83962        41.61784         0.27011
C         14.57781        42.34603         0.59003
C         15.76240        44.47072        -0.26740
C         14.57267        43.84376         0.45511
C         15.77374        45.96903        -0.12211
C         14.51843        46.64216        -0.30204
C         15.74023        48.78522        -0.37712
C         14.53664        48.05142        -0.46133
C         15.74507        50.20260        -0.56432
C         18.05484        10.65667        -1.89030
C         17.70833        11.99354        -1.88182
C         16.64338        12.77150        -1.32658
C         18.10429        14.66215        -0.29079
C         16.81729        14.13410        -0.94856
C         18.16181        16.16010        -0.03863
C         16.94846        16.88321         0.10796
C         18.19226        18.82385         0.93505
C         16.93998        18.21613         0.62449
C         18.27003        20.18514         1.57401
C         16.97844        20.94993         1.54357
C         18.23209        23.12061         1.66025
C         16.99039        22.36004         2.09218
C         18.20374        24.49804         1.68433
C         16.96522        25.24608         1.77508
C         18.22695        27.35853         1.87098
C         16.98779        26.63292         1.71097
C         18.18515        28.81836         2.02926
C         16.93321        29.51608         1.65803
C         18.24967        31.74061         1.59667
C         17.03824        30.95170         1.29786
C         18.23889        33.12594         1.51049
C         16.99946        33.83879         1.17531
C         18.18243        36.04853         1.36037
C         16.99368        35.24429         1.00103
C         18.26790        37.45790         0.93141
C         17.10450        38.10563         0.48347
C         18.30161        40.23366         0.43390
C         17.10220        39.49417         0.29246
C         18.31116        41.67518         0.25222
C         17.10364        42.37874         0.06673
C         18.27534        44.50076         0.13488
C         17.07703        43.78228         0.02298
C         18.22905        45.96521         0.32549
C         16.96864        46.69616         0.01492
C         18.18413        48.94809         0.21586
C         16.96711        48.09881        -0.09686
C         18.17891        50.19160        -0.64492
C         16.96080        50.91014        -0.75560
C         18.16192        53.05680        -1.09890
C         16.96614        52.31949        -1.05326
C         18.23851        54.45746        -1.19944
C         20.59918         6.96846        -3.90212
C         20.60350         8.22399        -3.26309
C         19.39628         8.87132        -2.85994
C         20.64361        10.84951        -2.13402
C         19.36436        10.16403        -2.34154
C         20.75117        12.17435        -1.57697
C         19.61316        13.06204        -1.57171
C         20.65393        14.62842        -0.04849
C         19.44489        14.10563        -0.71888
C         20.71861        16.14048        -0.07490
C         19.38147        16.78468         0.25708
C         20.67536        18.84055         0.72191
C         19.39140        18.13274         0.70738
C         20.61765        20.33187         0.48459
C         19.43431        21.01764         1.10816
C         20.71325        23.09971         1.19545
C         19.44009        22.38469         1.28533
C         20.72085        24.57426         1.22503
C         19.42693        25.28825         1.41508
C         20.71481        27.42558         1.83487
C         19.45191        26.71318         1.80162
C         20.73753        28.80345         1.94712
C         19.49282        29.57374         2.06799
C         20.78657        31.73189         1.88881
C         19.54399        30.97453         1.48916
C         20.72112        33.19855         1.83443
C         19.48593        33.85013         1.65121
C         20.73257        36.07228         1.50531
C         19.47606        35.32310         1.67466
C         20.73238        37.46419         1.27030
C         19.49559        38.16342         1.01316
C         20.77929        40.25500         0.66053
C         19.52347        39.55708         0.71928
C         20.78202        41.68100         0.40674
C         19.53408        42.39256         0.29987
C         20.76283        44.53756         0.18624
C         19.51621        43.81375         0.24095
C         20.78197        45.94818         0.09138
C         19.53957        46.70717         0.37935
C         20.77850        48.83798        -0.30115
C         19.53110        48.20131         0.21284
C         20.72177        50.16386        -0.95987
C         19.38432        50.78793        -1.31424
C         20.71691        52.98808        -1.29616
C         19.42920        52.28820        -1.02541
C         20.71106        54.45029        -1.49175
C         19.48039        55.16828        -1.32876
C         20.77858        57.26466        -1.44659
C         19.53847        56.57552        -1.36851
C         20.84372        58.67180        -1.29981
C         23.02972         4.47334        -5.29589
C         21.82098         5.07858        -4.94339
C         23.05256         6.99939        -4.02322
C         21.80373         6.34867        -4.30129
C         23.06274         8.21208        -3.32250
C         21.85547         8.85326        -2.96161
C         23.12973        10.75150        -1.99368
C         21.85923        10.14643        -2.33545
C         23.17075        12.00049        -1.31358
C         21.94454        12.65021        -1.02084
C         23.23452        14.64308        -0.15396
C         21.95544        13.90638        -0.25082
C         23.21055        16.03452         0.24048
C         21.90868        16.67613         0.75175
C         23.06031        18.93301         0.05239
C         21.86820        18.19250         0.62699
C         23.08889        20.38723         0.45591
C         21.92720        21.02141         0.79146
C         23.21276        23.07399         1.50384
C         21.90798        22.42645         1.11068
C         23.18881        24.57826         1.51452
C         21.98172        25.29195         1.50464
C         23.20749        27.34090         1.98315
C         21.97595        26.68535         1.71699
C         23.19963        28.74966         2.33351
C         22.03446        29.54913         1.72349
C         23.25700        31.82388         1.80904
C         21.96592        31.04936         2.01097
C         23.17652        33.30125         2.28908
C         21.91505        33.97234         1.89970
C         23.20324        36.07573         1.60483
C         21.95200        35.36549         1.63627
C         23.20091        37.45810         1.39791
C         21.97955        38.16505         1.20137
C         23.26732        40.24003         0.71029
C         21.99523        39.56418         0.87497
C         23.26431        41.60083         0.05186
C         21.98401        42.37748         0.25907
C         23.21631        44.49181        -0.06830
C         21.98798        43.79805         0.10907
C         23.21336        45.88803        -0.30734
C         21.98616        46.61401        -0.26026
C         23.17431        48.66993        -0.89630
C         22.00607        48.02674        -0.53136
C         23.21438        50.17821        -0.92089
C         21.87817        50.78666        -1.28390
C         23.16492        52.89137        -1.82115
C         21.84912        52.16877        -1.88925
C         23.14010        54.32816        -2.03020
C         21.92129        55.11033        -1.72748
C         23.27083        57.19299        -1.52693
C         21.99825        56.52534        -1.62727
C         23.30406        58.58971        -1.25124
C         22.08290        59.34095        -1.19107
C         23.37823        61.37407        -0.77632
C         22.15030        60.74414        -0.96689
C         24.25084         5.10333        -5.06729
C         25.50333         7.09655        -4.34536
C         24.30719         6.39611        -4.46184
C         25.48442         8.53767        -3.90268
C         24.39632         8.73225        -2.85132
C         25.58643        10.77091        -2.05388
C         24.35862        10.14389        -2.33462
C         25.61991        11.99655        -1.34284
C         24.41447        12.62287        -0.98858
C         25.68506        14.70172        -0.50429
C         24.42721        13.98849        -0.47909
C         25.61045        16.16387        -0.39085
C         24.36842        16.76392         0.12619
C         25.65656        18.96105         0.37239
C         24.36506        18.22073         0.37314
C         25.63309        20.41936         0.08667
C         24.32948        21.16370         0.23365
C         25.57912        23.24546         0.74603
C         24.40652        22.55327         0.73316
C         25.67934        24.51232         1.53006
C         24.40807        25.24562         1.72861
C         25.69150        27.25868         2.44721
C         24.41879        26.61580         2.02957
C         25.66794        28.66433         2.94912
C         24.30036        29.25074         2.96774
C         25.68468        31.82723         2.34531
C         24.44205        31.37693         2.62182
C         25.71778        33.14759         1.59326
C         24.45118        33.98233         1.87343
C         25.72375        36.01328         1.34394
C         24.45999        35.33348         1.66960
C         25.71782        37.41409         1.10333
C         24.50321        38.20816         1.53203
C         25.74631        40.25772         0.81430
C         24.46522        39.59539         0.94405
C         25.77784        41.77193         0.79161
C         24.49298        42.42683         0.33385
C         25.77084        44.54464         0.09441
C         24.46779        43.77397         0.10120
C         25.68340        45.89946        -0.58310
C         24.44152        46.57848        -0.62174
C         25.60504        48.59750        -1.42440
C         24.41455        47.95028        -0.99441
C         25.54544        49.94954        -2.11074
C         24.35657        50.76779        -1.70635
C         25.65638        52.86886        -1.82505
C         24.37674        52.16966        -1.85522
C         25.71174        54.25010        -1.72991
C         24.50966        55.06648        -1.96241
C         25.73745        57.09375        -1.22872
C         24.49372        56.46739        -1.56210
C         25.75123        58.47968        -0.98032
C         24.55687        59.24280        -1.01389
C         24.56787        60.64389        -0.78279
C         26.79741         9.10783        -3.41665
C         28.07681        10.88345        -2.28481
C         26.82842        10.19088        -2.58607
C         28.13582        12.01056        -1.53673
C         26.92416        12.56084        -0.82121
C         28.15543        14.79972        -0.70062
C         26.90939        14.07684        -0.73235
C         28.19757        16.18567        -0.38173
C         26.94175        16.93171        -0.30865
C         28.15786        18.96047         0.51667
C         26.97754        18.28871         0.24187
C         28.00790        20.42174         0.74628
C         26.87494        21.12042         0.39333
C         28.14528        23.35122         0.45300
C         26.84967        22.60120         0.33125
C         28.16612        24.83828         0.80066
C         26.97958        25.24859         1.65555
C         28.15519        27.40492         2.13827
C         26.98414        26.68439         2.03329
C         28.18232        28.82768         2.42993
C         26.93618        29.52885         2.84690
C         28.19859        31.75139         2.30237
C         26.92919        31.09553         2.70188
C         28.21323        33.14005         1.96034
C         26.93491        33.94634         2.04135
C         28.10175        35.85095         0.60814
C         26.91724        35.28419         1.33735
C         28.14968        37.36168         0.80177
C         26.95887        38.09807         0.90945
C         28.22699        40.37649         0.85997
C         26.93783        39.56198         0.85403
C         28.12599        41.59177        -0.04841
C         26.96094        42.28419        -0.00992
C         28.04007        44.30492        -1.12287
C         26.83377        43.65680        -0.55420
C         28.15612        45.80376        -0.89085
C         26.84074        46.53659        -1.04651
C         27.98351        48.45088        -2.28371
C         26.81414        47.89690        -1.46808
C         28.10358        50.02258        -2.42208
C         26.84235        50.72076        -1.96887
C         28.14862        52.76759        -1.54888
C         26.87381        52.07887        -1.76314
C         28.14566        54.16001        -1.33256
C         26.95352        54.92989        -1.41353
C         26.94206        56.31733        -1.19890
C         29.46484        12.62957        -1.17217
C         30.57877        14.84287        -0.92787
C         29.40426        14.12454        -0.93665
C         30.63119        16.23309        -0.57773
C         29.41098        16.90666        -0.20278
C         30.74886        18.85346         0.43809
C         29.45493        18.26939         0.29270
C         30.99639        20.12652         1.06596
C         29.10558        21.23642         1.19983
C         30.63702        23.20853         0.86743
C         29.29879        22.55355         0.90666
C         30.64006        24.63882         1.28045
C         29.45604        25.31166         1.43434
C         30.67628        27.45628         1.81034
C         29.46375        26.63710         2.16839
C         30.64596        28.84888         1.94641
C         29.39491        29.55538         2.27454
C         30.68462        31.75413         2.43181
C         29.38744        30.99237         2.29173
C         30.65607        33.19453         1.95799
C         29.42347        33.82303         1.69559
C         30.71259        35.84963         0.80999
C         29.41476        35.11836         0.93898
C         30.68923        37.29636         0.31766
C         29.44878        38.04503         0.80256
C         30.70703        40.13894         0.08237
C         29.49405        39.54834         0.69459
C         30.61281        41.35902        -0.77072
C         29.28901        42.05879        -0.86749
C         30.59377        44.17985        -1.66919
C         29.29396        43.48728        -1.35827
C         30.63907        45.67692        -1.32950
C         29.31291        46.35399        -1.76426
C         30.55341        48.49782        -2.41900
C         29.33716        47.88432        -1.68702
C         30.57187        49.95002        -1.99878
C         29.38321        50.64065        -1.87545
C         29.34401        52.01914        -1.51405
C         31.84056        16.93205        -0.64893
C         33.13798        18.99249        -0.25305
C         31.93748        18.27031        -0.17095
C         33.35488        20.28350         0.49502
C         32.05404        20.96592         0.80240
C         33.19189        23.25087         0.88434
C         31.94106        22.45130         0.81201
C         33.14851        24.63459         1.05986
C         31.90790        25.34701         1.36172
C         33.03549        27.53913         0.94913
C         31.87542        26.74453         1.47505
C         33.07183        28.95710         1.44866
C         31.89226        29.58213         1.79024
C         33.19851        31.74964         2.11022
C         31.85954        31.09114         1.71517
C         33.14163        33.25550         1.89875
C         31.90300        33.89782         1.85779
C         33.10653        36.15700         1.72448
C         31.77374        35.41102         1.80871
C         33.11808        37.51065         1.10634
C         31.94318        38.08398         0.65719
C         33.14953        40.14452        -0.14770
C         31.89268        39.45447         0.19471
C         33.02950        41.65550        -0.24390
C         31.94674        41.94761        -1.30812
C         33.11476        44.31991        -1.25211
C         31.95334        43.46989        -1.77680
C         33.09951        45.68785        -1.52517
C         31.87927        46.40614        -1.80785
C         31.83880        47.73677        -2.12915
C         34.42936        21.23926         0.07254
C         35.60588        23.36306         0.35335
C         34.40963        22.57638         0.44845
C         35.60987        24.72624         0.62463
C         34.36884        25.41593         0.92083
C         35.54971        27.57789         0.82857
C         34.34922        26.80717         0.98020
C         35.52564        28.98262         0.87704
C         34.30683        29.70695         1.21990
C         35.50352        31.88570         0.90180
C         34.33472        31.07494         1.38126
C         35.57280        33.29645         1.45158
C         34.40621        33.95767         1.81164
C         35.73697        36.21282         1.83835
C         34.41402        35.44413         1.95527
C         35.60526        37.57662         1.19050
C         34.39709        38.18346         0.93662
C         35.64334        40.34585         0.34587
C         34.42844        39.50123         0.25451
C         35.55819        41.70697        -0.05680
C         34.36108        42.34197        -0.44276
C         34.31909        43.68605        -0.84313
C         36.81310        25.49179         0.52850
C         38.01787        27.62994         0.52415
C         36.80371        26.87388         0.64049
C         38.02198        29.00302         0.62793
C         36.76824        29.72852         0.82580
C         38.08783        31.81764         1.21877
C         36.78702        31.10266         0.96847
C         38.02305        33.29735         0.94785
C         36.82951        34.00721         1.23296
C         38.04781        36.12115         0.89929
C         36.86470        35.41706         1.23719
C         38.03975        37.56107         0.85617
C         36.85304        38.28320         0.91395
C         36.83458        39.69376         0.64638
C         39.23478        29.76121         0.42246
C         40.44696        31.89536         0.27926
C         39.26876        31.11991         0.58320
C         40.42472        33.25464         0.31436
C         39.21004        33.99207         0.61877
C         39.20810        35.39552         0.56383
O         24.91756        20.89986        -1.08925
O         29.68136        41.08175        -1.88906
O          9.06180        35.61821        -1.93364
O         33.69118        36.04743         3.08708
O         33.94600        39.46337        -1.15297
O         26.94837        43.86750        -1.99346
O         18.73927        29.36496         3.29481
O         26.55934        24.32687         2.71393
O         16.72841        31.07303        -0.17605
O         20.45534        48.86845         1.15111
O         30.32537        34.92594        -0.22683
O         25.76601        27.56289         3.91097
O         24.20490        30.46417         3.64020
O          9.27830        30.94995        -1.87161
O         21.21397        13.88202         1.06811
O         18.64322        12.81834        -2.53741
O         23.84158        54.78667        -3.23343
O         23.52610        31.73070         0.44090
O         13.31189        40.69604         1.82605
O         13.54675        20.15269         2.12843
O         31.24196        22.93169        -0.45214
O         20.32358        52.63083         0.07529
O         26.15168        16.87820        -1.55776
O         27.66897        47.96486        -3.57126
O         13.98238        44.52345         1.53148
O         29.76979        38.86720         1.98496
O         15.45098        41.84189         1.66056
O         24.96314        18.63409         1.64752
O         27.06627        30.43444         3.98921
O         29.74231        43.68682        -2.72681
O         18.85386        46.31874         1.61371
O         27.57114        23.10539        -0.87234
O         19.98444        25.10396         0.05054
O         18.60649        35.86409         2.74870
O         30.04738        20.58679         1.98272
O         17.08253        22.21145         3.55520
H         17.78436        21.53181         3.72212
O         32.26879        41.13910        -2.44891
H         31.42018        40.86404        -2.86571
O         32.74371        27.70595        -0.50168
H         32.55412        26.81221        -0.86262
O         31.62397        31.37578         0.31219
H         32.25985        30.85461        -0.22272
O         25.80867        32.97198         0.17207
H         24.96956        32.47173        -0.07152
O         23.16581        33.18022         3.74658
H         23.23729        34.08099         4.12784
O         15.92201        37.30002        -1.37491
H         15.06767        36.93463        -1.69423
O         21.00235        16.45032        -1.46942
H         21.44703        17.33105        -1.51899
O         28.18481        50.32965        -3.83484
H         28.13551        49.44218        -4.29263
O         15.47570        44.17700        -1.68132
H         16.18554        44.57769        -2.22623
O         11.26763        32.75898        -2.20596
H         10.56090        32.13612        -2.51889
O         29.62364        26.29326         3.59227
H         30.50065        25.86771         3.69945
O         19.65932        30.73421         0.04804
H         19.96194        31.55890        -0.38661
O         28.46516        45.99052         0.52633
H         27.68299        45.66377         1.05328
O         33.85932        19.80068         1.83126
H         33.18224        19.18653         2.19116
O         26.19009        44.81280         1.46689
H         26.11564        43.95091         1.96755
O         17.97681        49.42994         1.57996
H         18.87058        49.57369         1.97005
O         12.85021        24.66216         3.47978
H         13.49567        24.12450         3.98622
O         23.31390        41.31056        -1.39514
H         23.42588        42.16241        -1.86899
O         26.73882        34.22249         3.46290
H         27.45626        34.81857         3.76423
O         29.44760        48.30225        -0.31719
H         28.91816        47.68090         0.24830
O         10.67334        40.06489         2.08657
H         11.54122        40.40472         2.42157
O         14.24628        29.90856         2.99817
H         13.29202        30.08442         3.14213
O         11.64187        21.64121         3.13382
H         12.27341        20.88980         3.21694
O         30.63639        37.28225        -1.12323
H         30.28577        36.39663        -1.38954
O         30.81143        45.68726         0.10814
H         30.77996        46.62213         0.40872
O         31.17258        35.80250         3.08086
H         31.90378        35.82151         3.74164
O         14.04963        39.16351        -1.51343
H         14.56975        39.74590        -2.11994
O         24.78301         7.89834        -1.71381
H         24.07782         7.96838        -1.03684
O         28.33266        40.95725         2.21010
H         28.72452        40.24639         2.77469
O         25.96429        42.21003         2.18299
H         26.81463        41.78946         2.49163
O         22.29834        29.44433         0.29679
H         22.83833        30.25565         0.04635
O         18.52906        19.94884         3.02564
H         18.05022        19.13163         3.28337
O         21.51700        52.03757        -3.31714
H         22.32380        51.74324        -3.79376
O         32.48346        42.14519         1.01021
H         33.20944        42.22694         1.66305
O         30.36373        48.40945        -3.84643
H         29.98760        47.51379        -4.02995
O         27.82811        35.62607        -0.81736
H         27.43659        34.72909        -0.90807
O         38.30869        31.71857         2.67729
H         38.35721        30.76428         2.90037
O         25.09653         9.32083        -5.07585
H         25.79479         9.21594        -5.75513
O         35.26067        32.10529        -0.55078
H         35.28591        31.22625        -0.98737
O         17.96454        14.10778         1.07645
H         17.13595        14.47013         1.45714
O         16.18471        40.36446        -1.68623
H         16.57025        39.51393        -1.99679
O         23.47647        50.58339         0.47181
H         22.72379        50.26477         1.01727
O         33.50900        31.52431         3.50862
H         32.70335        31.73706         4.03777
O         15.78846        27.29914        -0.20345
H         16.58983        27.77997        -0.50421
O         12.47965        25.12470        -0.13776
H         11.81247        25.57468        -0.69740
O         13.93147        32.75400        -1.57783
H         13.10739        32.60333        -2.10565
O         30.92789        31.76783         3.87695
H         30.07941        31.96851         4.32726
O         20.47508        20.47266        -0.98578
H         20.35782        21.42801        -1.18175
O         36.19384        36.46357         3.20499
H         35.38510        36.64083         3.73903
O         30.47357        12.30734        -2.13237
H         30.24777        12.75128        -2.97513
O         22.85186        18.85112        -1.39049
H         22.12058        19.48075        -1.60802
O         24.69453        38.40982         2.98722
H         23.97795        39.00374         3.29776
O         23.42625        22.64851         2.89055
H         24.22892        23.10298         3.22784
O         25.39148        49.61823        -3.53321
H         26.15148        49.00457        -3.76068
O         27.03924        12.09385         0.56999
H         26.95033        11.11713         0.55985
O         21.73479        16.33347         2.13535
H         21.62941        15.35118         2.17952
O         32.24507        43.48342        -3.19134
H         32.55847        42.57607        -3.43080
O         14.71589        38.20769         1.95144
H         14.11607        38.92255         2.25957
O         11.50103        26.85769         2.99853
H         12.00027        26.20274         3.54458
O         29.13338        45.98651        -3.12809
H         28.32489        46.46433        -3.48420
O         19.18584        50.61599        -2.74853
H         19.92902        51.08410        -3.20955
O         28.03685        25.60338        -0.42664
H         27.89170        24.95395        -1.15637
H          5.06108        30.97118        -0.32449
H          5.06819        33.43032        -0.32863
H          7.46940        26.74288         0.16299
H          6.29436        28.85294        -0.22549
H          6.22810        35.52606        -0.18115
H          7.44246        37.74932         0.02874
H          9.69763        22.63768         1.66247
H          8.57772        24.69906         0.97599
H          8.59305        39.85778         0.15808
H          9.87284        42.08501         0.02572
H         12.56256        18.70382        -0.71723
H         11.51245        21.46091        -0.25233
H         11.11437        44.19808        -0.26544
H         12.38386        46.38679        -0.68536
H         14.71040        14.54844        -1.15025
H         13.62010        16.64789        -0.72766
H         13.58948        48.58813        -0.62191
H         14.78745        50.72896        -0.69088
H         17.33265         9.89878        -1.55024
H         15.62880        12.34421        -1.26399
H         16.00168        52.84442        -1.12243
H         17.30597        55.04194        -1.19628
H         19.64087         6.46761        -4.10537
H         18.44768         8.33218        -3.00372
H         18.61185        57.15936        -1.26238
H         19.91098        59.24603        -1.19461
H         23.01573         3.48545        -5.77817
H         20.86960         4.56789        -5.15062
H         23.40979        62.45869        -0.60106
H         21.21893        61.32725        -0.93344
H         25.18672         4.61944        -5.38219
H         26.43286         6.65766        -4.74272
H         26.70546        58.98208        -0.76336
H         25.52686        61.15124        -0.60523
H         27.73359         8.74160        -3.86883
H         29.00686        10.48189        -2.71856
H         29.09693        54.67370        -1.12457
H         27.88760        56.83034        -0.96770
H         29.79038        12.15608        -0.20192
H         31.52121        14.32774        -1.16719
H         31.52390        50.43792        -1.73113
H         30.28526        52.52970        -1.25320
H         32.73863        16.42933        -1.03675
H         34.02249        18.48349        -0.66722
H         34.03750        46.26051        -1.42924
H         32.78377        48.25071        -2.37391
H         35.37372        20.81389        -0.30194
H         36.54339        22.86698         0.06083
H         36.49268        42.28756        -0.11463
H         35.24502        44.28351        -0.80954
H         37.76176        24.96742         0.33961
H         38.96018        27.09147         0.34320
H         38.98250        38.08452         0.63701
H         37.78985        40.23864         0.60360
H         40.12977        29.22492         0.07056
H         41.36170        31.36011        -0.01687
H         41.32867        33.83062         0.06809
H         40.12931        35.93285         0.29440
