         638
 CSIRO Nanostructure Databank - Neutral Graphene Oxide Data Set
C         22.83445        69.91275        -0.57663
C         22.92849        71.33698        -1.08595
C         21.75011        72.05515        -1.32914
C         23.03099        74.01185        -1.97457
C         21.80817        73.38266        -1.77800
C         25.43198        65.67910        -0.33500
C         25.42618        67.05741        -0.37408
C         24.19829        67.80012        -0.61714
C         25.35562        69.98084        -0.20731
C         24.14365        69.15307        -0.54674
C         25.41718        71.20010        -1.11942
C         24.16890        71.96390        -1.30163
C         25.50794        73.99362        -1.82920
C         24.24257        73.31804        -1.73519
C         27.83976        61.42016         0.35486
C         27.82139        62.78583         0.31599
C         26.65367        63.54476        -0.06537
C         27.85286        65.68266         0.21943
C         26.62331        64.92987        -0.03387
C         27.85055        67.10868         0.13076
C         26.65542        67.80806        -0.14049
C         27.89242        69.94865        -0.22811
C         26.65439        69.21848        -0.20415
C         27.92970        71.31935        -0.63873
C         26.72683        71.92604        -1.23644
C         27.94851        74.07616        -1.42090
C         26.71641        73.37645        -1.51450
C         30.28772        57.01145         0.33603
C         30.26289        58.52024         0.59990
C         29.09594        59.21265         0.58084
C         30.31638        61.40139         0.67654
C         29.01506        60.67838         0.95010
C         30.32294        62.79974         0.55694
C         29.02839        63.54067         0.84782
C         30.30644        65.71476         0.28506
C         29.03688        64.99602         0.46149
C         30.36330        67.17925         0.45533
C         29.04810        67.89096         0.61580
C         30.34392        69.98641         0.03262
C         29.10270        69.30013         0.09725
C         30.35281        71.37217        -0.31617
C         29.12951        72.03513        -0.64365
C         30.37570        74.13668        -1.01183
C         29.14515        73.43825        -1.04194
C         32.87258        52.76168         0.61135
C         32.81756        54.19802         0.70797
C         31.74010        54.91421         0.26320
C         32.65483        57.03301         1.26138
C         31.72015        56.42134         0.20522
C         32.68943        58.52651         1.05360
C         31.52952        59.22494         0.82442
C         32.74949        61.39250         0.57811
C         31.53204        60.68375         0.69524
C         32.75607        62.77649         0.31924
C         31.54155        63.47719         0.33453
C         32.84706        65.66290         0.40416
C         31.57144        64.94994         0.13861
C         32.84170        67.12922         0.81052
C         31.55461        67.85870         0.47131
C         32.81360        69.97844         0.06284
C         31.58676        69.29595         0.26007
C         32.79766        71.35971        -0.28646
C         31.59378        72.06044        -0.44035
C         32.81628        74.20453        -0.70121
C         31.59690        73.49057        -0.73649
C         35.19314        48.48222         1.10201
C         35.27077        49.89747         0.89436
C         34.08846        50.62776         0.84326
C         35.31248        52.78761         0.99351
C         34.05819        52.06101         0.79597
C         35.28010        54.16241         1.25131
C         33.95315        54.84493         1.48855
C         35.20866        57.00689         1.28618
C         34.00888        56.34448         1.28375
C         35.24956        58.44969         0.83300
C         33.98060        59.22164         1.14157
C         35.29022        61.32418         0.33776
C         34.01559        60.68354         0.84630
C         35.22989        62.81618         0.74175
C         34.05474        63.51433         0.01097
C         35.29406        65.68486         0.73995
C         34.00408        64.97406         0.39642
C         35.26032        67.11667         0.24462
C         34.09544        67.81898         0.30362
C         35.29284        69.93038        -0.11271
C         34.08680        69.25685         0.07082
C         35.28361        71.43571        -0.00072
C         34.08046        72.03518        -0.71770
C         35.27015        74.22803        -0.48763
C         34.06137        73.54610        -0.57505
C         37.71781        44.38175         0.46263
C         37.67966        45.68544         0.96498
C         36.43783        46.33614         1.24295
C         38.00318        48.58941         0.10022
C         36.23877        47.69805         1.65872
C         37.86499        49.95921         0.45046
C         36.52043        50.65988         0.34790
C         37.75949        52.74048         1.14226
C         36.55801        52.08203         0.87787
C         37.78519        54.16942         1.65223
C         36.48315        54.91045         1.43683
C         37.73268        57.02264         1.92539
C         36.46692        56.29747         1.47572
C         37.70216        58.54048         1.72820
C         36.43940        59.25052         1.31805
C         37.72929        61.33646         0.88690
C         36.52986        60.65103         0.86379
C         37.78698        62.77485         0.63389
C         36.54317        63.52921         0.52506
C         37.83047        65.57000         0.02482
C         36.53017        64.89159         0.38288
C         37.76198        67.07507         0.19961
C         36.50262        67.71072        -0.37698
C         37.65973        69.93185        -0.79468
C         36.52255        69.23383        -0.39343
C         37.73062        71.38874        -0.70218
C         36.55170        72.11663        -0.43735
C         37.76558        74.21487        -0.61433
C         36.53942        73.53758        -0.50562
C         40.10675        40.21644        -0.85799
C         40.10816        41.58626        -0.51771
C         38.90458        42.31479        -0.27698
C         40.20015        44.28708         0.32340
C         38.92517        43.65075         0.15529
C         40.25681        45.61290         0.95002
C         38.98280        46.41732         1.24131
C         40.28518        48.54351         0.89018
C         39.08434        47.82239         0.61294
C         40.28138        49.96407         0.87908
C         39.03156        50.65916         0.83393
C         40.25548        52.80442         1.14234
C         39.01139        52.07648         1.04803
C         40.26433        54.21241         1.18120
C         38.95237        54.93631         0.98932
C         40.21089        57.04477         1.49549
C         39.01238        56.37802         1.42605
C         40.22635        58.51422         1.71313
C         38.96123        59.27145         1.49822
C         40.22484        61.31039         0.82533
C         38.95872        60.60186         1.14746
C         40.24372        62.78351         0.81118
C         39.00152        63.47001         0.72484
C         40.23550        65.65228         0.45473
C         38.96252        64.98327         0.87975
C         40.23028        67.00514         0.24760
C         38.95561        67.70261         0.47989
C         40.22087        69.86277        -1.04603
C         38.87026        69.28450        -1.41276
C         40.23433        71.37424        -1.28284
C         38.95400        72.07305        -0.87285
C         40.23119        74.18290        -0.64994
C         38.99028        73.49781        -0.72177
C         42.53975        36.07099        -2.01148
C         42.53845        37.42661        -1.60067
C         41.32581        38.12759        -1.39701
C         42.57520        40.18690        -0.92768
C         41.31470        39.50017        -1.05802
C         42.59060        41.57173        -0.63600
C         41.37176        42.26863        -0.41705
C         42.67052        44.35299        -0.04474
C         41.39700        43.64248        -0.03443
C         42.72613        45.69917         0.27628
C         41.55567        46.36982         0.84942
C         42.71982        48.56454         0.71061
C         41.54103        47.85104         0.90037
C         42.73450        49.98239         0.81936
C         41.51016        50.67931         0.96864
C         42.73486        52.80732         1.12524
C         41.50459        52.10333         1.08735
C         42.73467        54.22674         1.23865
C         41.48888        54.93196         1.24694
C         42.72729        57.06157         1.28082
C         41.48368        56.36185         1.32374
C         42.77937        58.49124         1.32245
C         41.52733        59.22797         1.54915
C         42.78361        61.37875         1.16074
C         41.52830        60.61450         1.01412
C         42.73339        62.79524         0.98789
C         41.48212        63.45119         0.80498
C         42.72888        65.53783         0.20364
C         41.49738        64.95211         0.84368
C         42.69695        66.92684        -0.37647
C         41.32361        67.61002        -0.65197
C         42.68123        69.78678        -0.84516
C         41.34406        69.13683        -0.75250
C         42.70081        71.33421        -0.78771
C         41.44443        72.05851        -0.70871
C         42.68304        74.14202        -0.25731
C         41.47145        73.47503        -0.52482
C         44.94119        33.35325        -2.94932
C         43.74082        34.02255        -2.70239
C         45.00069        36.04027        -2.08327
C         43.74385        35.37434        -2.26700
C         45.03474        37.39285        -1.63352
C         43.79480        38.10270        -1.40728
C         45.05714        40.17145        -0.91144
C         43.80688        39.47535        -1.07242
C         45.09130        41.54915        -0.77845
C         43.84946        42.28269        -0.62760
C         45.11667        44.42435        -0.77302
C         43.87018        43.65512        -0.42569
C         45.21945        45.78240        -0.15215
C         44.02422        46.42117         0.49687
C         45.23447        48.59232         0.35149
C         43.92380        47.88574         0.10971
C         45.22161        49.99896         0.65698
C         43.98500        50.69344         0.81793
C         45.22253        52.79424         1.12903
C         43.98214        52.09800         1.01469
C         45.24003        54.23458         1.24186
C         43.97471        54.94617         1.24447
C         45.23524        57.07414         0.86800
C         43.95289        56.34595         1.19983
C         45.23062        58.55295         1.16270
C         43.98028        59.23451         1.28548
C         45.24828        61.42285         1.64619
C         43.96753        60.67576         1.35887
C         45.21764        62.85739         1.15225
C         43.97780        63.53409         0.95986
C         45.19132        65.64406         0.52919
C         43.99535        64.91396         0.63236
C         45.12705        67.05285         0.18621
C         43.95696        67.69707        -0.23495
C         45.14085        69.85856        -0.51435
C         43.94272        69.11236        -0.48031
C         45.12797        71.30433        -0.55740
C         43.94874        71.99645        -0.43589
C         45.22701        74.09821         0.10902
C         43.90147        73.37652         0.17507
C         46.16723        33.98930        -2.76940
C         47.45850        36.00499        -2.12861
C         46.22514        35.34195        -2.32855
C         47.50282        37.34114        -1.67220
C         46.27388        38.02745        -1.42360
C         47.58501        40.13790        -0.97697
C         46.31505        39.36453        -0.73529
C         47.60506        41.52113        -0.83189
C         46.36308        42.26206        -0.71047
C         47.63547        44.38206        -0.61638
C         46.39449        43.64270        -0.62149
C         47.64072        45.77875        -0.52056
C         46.40739        46.48303        -0.22885
C         47.66345        48.67177         0.04677
C         46.40502        47.91188         0.08873
C         47.69893        49.99958         0.67689
C         46.44675        50.69199         0.85610
C         47.70621        52.76835         1.53013
C         46.43314        52.07779         1.12917
C         47.71353        54.24982         1.24836
C         46.46072        54.92405         1.27643
C         47.71996        57.11088         1.06845
C         46.44962        56.41320         1.50281
C         47.69394        58.51019         0.95820
C         46.44655        59.23872         1.11305
C         47.68155        61.35155         1.04544
C         46.48937        60.67359         1.20141
C         47.71693        62.83105         1.33707
C         46.41927        63.55335         1.02156
C         47.68295        65.65046         0.71267
C         46.43054        64.95855         0.76509
C         47.67316        67.13060         0.65632
C         46.34023        67.86145         0.37397
C         47.61467        69.89096        -0.29984
C         46.39600        69.21994        -0.19268
C         47.66202        71.30775        -0.74700
C         46.36662        72.10728        -0.87785
C         47.67990        74.15181        -0.08364
C         46.40530        73.47278        -0.19901
C         48.74567        38.01911        -1.47655
C         50.03918        40.09430        -1.10452
C         48.80825        39.40221        -1.17925
C         50.08982        41.49416        -0.89246
C         48.85463        42.24068        -0.82041
C         50.13192        44.33382        -0.55920
C         48.88012        43.64090        -0.69511
C         50.16708        45.73680        -0.41054
C         48.93630        46.52043        -0.80245
C         50.19232        48.57992         0.22171
C         48.95568        47.97774        -0.32117
C         50.15736        49.89126         0.68875
C         48.92969        50.64390         0.82838
C         50.14891        52.77672         1.10144
C         48.96417        52.06415         1.10621
C         50.18146        54.22646         1.02262
C         48.92645        54.94232         1.08857
C         50.13147        57.07666         0.63506
C         48.93222        56.38828         0.93774
C         50.12108        58.50229         0.51670
C         48.90851        59.22738         0.74007
C         50.13261        61.35533         0.56256
C         48.91229        60.65193         0.76333
C         50.13017        62.79566         0.55866
C         48.93780        63.51281         0.77567
C         50.17640        65.65028         0.65169
C         48.89174        64.93226         0.68699
C         50.16597        67.15384         0.44220
C         48.88915        67.85921         0.29555
C         50.12236        69.93533        -0.15275
C         48.86084        69.21184        -0.04776
C         50.16901        71.32041        -0.23084
C         48.93941        72.06766        -0.54859
C         50.16527        74.18179        -0.08095
C         48.90560        73.52427        -0.26031
C         51.31543        42.17818        -0.74617
C         52.58199        44.26762        -0.36854
C         51.35909        43.57802        -0.54242
C         52.61096        45.65329        -0.13967
C         51.38316        46.40508        -0.14257
C         52.65086        48.41421         0.49882
C         51.42138        47.80730         0.19363
C         52.69679        49.80030         1.01895
C         51.39306        50.53913         1.17898
C         52.70998        52.77473         1.03985
C         51.41668        52.03718         1.26046
C         52.63979        54.19580         0.62311
C         51.38207        54.90223         0.72512
C         52.51645        56.99535         0.04135
C         51.37640        56.34034         0.46678
C         52.46553        58.44335        -0.39370
C         51.30977        59.21584         0.19808
C         52.58145        61.32804         0.03389
C         51.33352        60.62196         0.25475
C         52.61290        62.74295         0.11717
C         51.37864        63.50524         0.31970
C         52.68032        65.67909         0.38143
C         51.40216        64.88518         0.37173
C         52.58651        66.99842        -0.41335
C         51.37864        67.82330        -0.05180
C         52.58299        69.92053        -0.60382
C         51.35524        69.18111        -0.22808
C         52.62079        71.37356        -0.37171
C         51.41131        72.05403        -0.22511
C         52.65967        74.16694        -0.03940
C         51.38976        73.49810        -0.12093
C         53.84636        46.33907         0.08681
C         55.18199        48.36390         0.74803
C         53.87346        47.68633         0.39261
C         55.15472        49.87034         0.58469
C         53.94107        50.58252         0.80971
C         55.10064        52.69954         0.38805
C         53.92348        51.98549         0.72764
C         55.05796        54.11747         0.17043
C         53.79744        54.82545         0.19588
C         55.03726        56.97324        -0.31787
C         53.72997        56.21352        -0.39552
C         55.02705        58.42769        -0.43480
C         53.79103        59.16379        -0.30110
C         55.01610        61.30703        -0.40352
C         53.79267        60.58313        -0.22334
C         55.03172        62.69644        -0.29526
C         53.84780        63.43529        -0.01315
C         55.06549        65.57060        -0.23770
C         53.89986        64.88803        -0.02518
C         55.11750        67.03944        -0.55802
C         53.85865        67.76736        -0.22821
C         55.14602        69.92818        -0.43641
C         53.88271        69.17359        -0.57245
C         55.10096        71.35703        -0.46623
C         53.88121        72.05575        -0.37107
C         55.14618        74.17396        -0.05247
C         53.86487        73.48941        -0.15725
C         56.32765        50.56602         0.33982
C         57.52550        52.71354         0.03667
C         56.33280        51.98713         0.23727
C         57.51681        54.11749        -0.07767
C         56.25358        54.81872        -0.08912
C         57.51134        56.90566        -0.61348
C         56.22183        56.24761        -0.31508
C         57.51525        58.42061        -0.73049
C         56.23360        59.11898        -0.57413
C         57.54940        61.25178        -0.50188
C         56.25158        60.58308        -0.90227
C         57.60956        62.69917        -0.61934
C         56.28227        63.44881        -0.56514
C         57.60404        65.61193        -0.69026
C         56.38388        64.87124        -0.07656
C         57.62136        67.05561        -0.23888
C         56.31793        67.74534         0.06484
C         57.59020        69.92660        -0.04749
C         56.33772        69.23327        -0.22783
C         57.61803        71.36993        -0.11823
C         56.40005        72.09884        -0.66482
C         57.62264        74.32280        -0.36417
C         56.33430        73.54550        -0.24400
C         58.74787        54.82881        -0.13656
C         59.97887        56.96123        -0.29361
C         58.78949        56.22238        -0.30986
C         59.99476        58.39557        -0.32146
C         58.77483        59.12025        -0.44412
C         59.97122        61.23504         0.00001
C         58.75820        60.54004        -0.27310
C         59.94953        62.70192         0.37666
C         58.80765        63.46088        -0.25613
C         60.03998        65.56460         0.05271
C         58.85053        64.84649        -0.28757
C         60.05990        67.00910         0.04763
C         58.79089        67.74921        -0.04646
C         60.04691        69.87625         0.53554
C         58.76389        69.18373         0.15179
C         60.06322        71.35610         0.22574
C         58.82675        72.06870         0.02570
C         60.08535        74.16163        -0.04488
C         58.87808        73.51125        -0.09988
C         61.19902        59.11075        -0.13720
C         62.44329        61.20364         0.25438
C         61.22291        60.52942         0.02811
C         62.47919        62.66504         0.59461
C         61.27662        63.36320        -0.04591
C         62.48565        65.51831         0.32860
C         61.27905        64.85826         0.18786
C         62.50032        66.99314         0.64881
C         61.24444        67.69406         0.20106
C         62.54424        69.86781         0.18219
C         61.24244        69.16727        -0.10529
C         62.54634        71.26858         0.20735
C         61.28850        72.01033         0.17741
C         62.55296        74.11698         0.07762
C         61.33325        73.45202         0.07079
C         63.74543        63.39454         0.24229
C         64.95180        65.53866         0.09268
C         63.74923        64.79164         0.22460
C         64.96999        66.96458         0.07471
C         63.75652        67.70260         0.21450
C         65.00210        69.82425         0.06943
C         63.76196        69.11962         0.14746
C         65.01078        71.24689         0.08865
C         63.78530        71.97391         0.16616
C         65.02703        74.08480         0.07144
C         63.80058        73.40994         0.12215
C         66.18972        67.67504        -0.06614
C         67.45335        69.80393        -0.09871
C         66.23292        69.08917        -0.02946
C         67.47996        71.21773        -0.07028
C         66.25042        71.94874         0.01723
C         67.50548        74.05381        -0.03464
C         66.26104        73.37709         0.02729
C         68.70204        71.94291        -0.13153
C         68.70144        73.33559        -0.10960
O         40.95989        59.01605         2.89199
O         30.87735        65.36591        -1.08757
O         48.27162        48.80574        -1.32472
O         36.79478        59.12733         2.73541
O         46.90026        67.76553         1.72799
O         57.54443        57.54646        -1.92626
O         48.51768        71.60534        -1.90659
O         52.03350        49.90526         2.33256
O         42.78899        65.73626        -1.25115
O         40.93092        60.69392        -0.33303
O         53.16070        69.48810        -1.89828
O         34.11361        60.19533         2.23366
O         50.32933        66.57908         1.81995
O         41.47393        65.28777         2.23912
O         42.81150        70.57512        -2.06834
O         26.20090        71.06478        -2.33689
O         38.74974        68.48493        -2.33441
O         52.18549        52.54330         2.39960
O         41.16551        45.66991         2.11631
O         56.88443        63.19357        -1.83480
O         46.17808        72.41925        -2.28796
H         47.06933        72.36486        -2.71063
O         38.65896        54.93023        -0.44585
H         39.40640        55.36265        -0.90958
O         28.85274        67.99698         2.08150
H         29.67183        68.38492         2.45888
O         62.51284        67.08264         2.13029
H         61.67402        66.68939         2.45348
O         56.26574        47.78780         0.01509
H         56.10105        47.92744        -0.93961
O         22.36701        69.99229         0.79419
H         22.28174        69.07916         1.13941
O         46.32943        56.60770         2.94077
H         47.04340        56.10027         3.37995
O         61.41942        63.15687        -1.47279
H         60.67507        63.61092        -1.92260
O         38.77791        65.24040         2.28568
H         39.71083        65.27434         2.65328
O         52.46790        66.67732        -1.84867
H         52.43333        67.55394        -2.30552
O         35.31222        65.76689         2.21511
H         35.28315        64.83276         2.54225
O         40.92916        67.21392        -1.98184
H         41.26353        66.29738        -2.12829
O         56.17416        60.64098        -2.37597
H         56.31958        61.58577        -2.62815
O         39.05250        68.91799         1.10960
H         38.16516        69.20184         1.40821
O         44.25533        46.39908         1.93991
H         44.01817        45.50997         2.27792
O         34.24303        71.74460        -2.13196
H         33.47635        72.12267        -2.61100
O         37.78000        56.81935         3.38048
H         37.23130        57.53434         3.78182
O         43.69810        47.92450        -1.33086
H         43.70949        48.86251        -1.61492
O         35.38372        58.39236        -0.61458
H         34.60969        57.90550        -0.97421
O         34.90717        62.89855         2.15580
H         35.38376        62.18351         2.63165
O         49.01916        46.57027        -2.26661
H         48.56452        47.40402        -2.53615
O         28.81286        60.73058         2.41629
H         29.55848        60.24552         2.83068
O         62.35843        62.78493         2.07360
H         63.11749        62.30592         2.46862
O         36.20836        50.76592        -1.07717
H         36.21802        49.85275        -1.43983
O         46.34571        39.03208         0.71381
H         47.15613        38.49967         0.86586
O         25.15981        70.49628         1.14857
H         24.18705        70.55777         1.30780
O         61.04449        69.29675        -1.54828
H         61.77965        68.83280        -2.00082
O         45.35246        61.51302         3.10431
H         46.20779        61.97168         3.29897
O         37.01685        48.34194         2.53745
H         37.76313        47.76632         2.85434
O         38.98348        46.65252         2.68008
H         39.91968        46.51672         2.98504
O         35.30008        61.16699        -1.10729
H         36.21167        61.33085        -1.42951
O         45.39627        56.94065        -0.57974
H         44.65930        57.42033        -1.01265
O         57.54368        65.63193        -2.13180
H         56.75664        66.18035        -2.38706
O         47.72624        52.66448         3.01258
H         48.63112        52.90003         3.31224
O         55.28538        67.11601        -2.02345
H         54.41936        66.83390        -2.40640
O         47.85300        62.91703         2.81158
H         47.94586        63.86742         3.04174
O         35.10472        71.75861         1.41386
H         35.87792        71.41700         1.90864
O         52.94540        66.03786         1.76748
H         52.08948        66.35378         2.15488
O         29.57999        56.32730         1.37288
H         30.13447        56.37774         2.18410
O         56.60375        64.80417         1.35834
H         56.35326        65.68458         1.73509
O         44.99167        44.67992        -2.22998
H         45.78715        45.18696        -2.50210
O         38.03076        54.07768         3.07177
H         37.94990        54.98817         3.45316
O         38.13793        65.19622        -1.34350
H         37.50389        65.70189        -1.90888
O         52.17793        58.40080        -1.84595
H         52.68716        57.63365        -2.21147
O         56.13892        67.60697         1.52089
H         56.87585        68.08680         1.95621
O         33.63329        54.59786         2.89823
H         32.79895        55.09143         3.08094
O         53.53369        56.00213        -1.86450
H         54.39559        55.70887        -2.23355
O         60.19252        69.73741         1.98276
H         59.56575        70.35647         2.41160
O         32.89851        67.15578         2.27022
H         33.75796        66.72647         2.52516
O         40.33532        71.55050        -2.73844
H         41.19647        71.14290        -3.00282
O         32.28018        56.83918        -1.07323
H         31.86004        56.30597        -1.78035
O         43.69095        73.11360         1.62776
H         44.49877        72.67089         1.96621
O         57.68267        74.81233        -1.72105
H         57.47416        74.04744        -2.30470
O         34.25080        63.51936        -1.41583
H         34.36479        62.58429        -1.71183
O         32.03200        56.79924         2.57127
H         32.50945        57.35336         3.22611
O         36.43989        67.27676        -1.77853
H         37.19560        67.72572        -2.25141
O         56.61764        72.14662        -2.13035
H         56.57061        71.22374        -2.46262
O         59.73125        62.78195         1.80885
H         60.60496        62.65303         2.25481
O         37.09335        48.04861        -0.76434
H         37.24337        47.08406        -0.85267
O         28.90317        63.53953         2.30861
H         28.77496        62.59469         2.58292
H         23.06664        75.05751        -2.31249
H         25.50366        75.06621        -2.07639
H         27.97003        75.14940        -1.66403
H         30.38436        75.20963        -1.25671
H         32.79253        75.30316        -0.77135
H         35.27211        75.32918        -0.47915
H         37.78725        75.31455        -0.60212
H         40.23136        75.27910        -0.55829
H         42.68805        75.23975        -0.18569
H         45.25161        75.12915         0.49937
H         47.66661        75.21166         0.21752
H         50.16759        75.27244         0.06935
H         52.66954        75.25817         0.10559
H         55.13320        75.25243         0.17305
H         57.60495        75.22087         0.30745
H         60.11477        75.25780        -0.13762
H         62.57188        75.21524         0.00924
H         65.03972        75.18466         0.04201
H         67.52245        75.15306        -0.02707
H         22.07305        69.34122        -1.18067
H         20.77611        71.57047        -1.17345
H         20.87468        73.93047        -1.96844
H         24.49744        65.12717        -0.51941
H         23.28227        67.22313        -0.82776
H         26.94520        60.84486         0.06851
H         25.74900        62.99165        -0.36230
H         29.73613        56.81079        -0.62111
H         28.15148        58.67685         0.39619
H         31.96562        52.21803         0.30435
H         30.88294        54.37676        -0.17506
H         34.29198        47.96275         0.73713
H         33.13361        50.10412         1.01088
H         36.76218        43.85283         0.32292
H         35.54932        45.86196         0.79179
H         39.14843        39.68393        -0.95187
H         37.93969        41.79763        -0.38753
H         41.57913        35.55373        -2.15598
H         40.37148        37.59553        -1.52707
H         44.91745        32.30783        -3.28834
H         42.78114        33.50542        -2.84464
H         47.10405        33.44802        -2.96468
H         48.39872        35.46916        -2.32586
H         49.68132        37.46803        -1.65251
H         50.97928        39.53298        -1.21313
H         52.25718        41.60986        -0.77539
H         53.52687        43.70446        -0.39209
H         54.78873        45.77247         0.05620
H         55.38908        48.14975         1.83437
H         57.27001        50.01164         0.22075
H         58.48387        52.17599        -0.01013
H         59.68812        54.26925        -0.02382
H         60.93141        56.43187        -0.14300
H         62.14406        58.55234        -0.06046
H         63.37576        60.61914         0.29299
H         64.69344        62.84153         0.14987
H         65.90493        64.99806        -0.00309
H         67.13009        67.11154        -0.15863
H         68.39995        69.24838        -0.17634
H         69.65127        71.39193        -0.19607
H         69.65598        73.87869        -0.15685
