         429
 CSIRO Nanostructure Databank - Neutral Graphene Oxide Data Set
C          1.11865         2.04976        -0.28747
C          1.08417         3.44872        -0.32248
C          2.32568         1.36239        -0.31502
C          2.27214         4.20624        -0.41461
C          1.03837         6.41158        -0.28260
C          1.02417         7.79147        -0.18370
C          2.25328         5.67915        -0.35789
C          2.22421         8.54580        -0.12118
C          1.03445        10.75702         0.17009
C          1.01904        12.11450         0.26596
C          2.23873         9.99341        -0.07856
C          2.18844        12.92856        -0.09132
C          1.10480        15.12924         0.50860
C          1.14458        16.43710         0.86216
C          2.30124        14.35128         0.29466
C          2.44168        17.09874         1.21926
C          2.47607        18.58258         0.94995
C          3.54747         2.07852        -0.40111
C          3.49880         3.50196        -0.47923
C          4.80154         1.39814        -0.42613
C          4.76814         4.22151        -0.63968
C          3.45422         6.41248        -0.30331
C          3.45556         7.82932        -0.15820
C          4.74794         5.73493        -0.51493
C          4.70447         8.53860        -0.08179
C          3.46598        10.67123        -0.15798
C          3.50116        12.13793        -0.29642
C          4.70500         9.95691        -0.10833
C          4.77084        12.85435        -0.10147
C          3.55933        14.98697         0.32580
C          3.64272        16.38339         0.64648
C          4.78937        14.25420         0.08637
C          4.86171        17.06541         0.59002
C          3.65016        19.23092         0.81172
C          4.91503        18.50726         0.75134
C          6.03241         2.09065        -0.40422
C          6.03606         3.51686        -0.40958
C          7.29330         1.42058        -0.40432
C          7.23505         4.23908        -0.23783
C          5.98670         6.39340        -0.07028
C          5.94287         7.82609         0.06544
C          7.17242         5.66260         0.01954
C          7.14557         8.55173         0.16594
C          5.94543        10.67592        -0.12535
C          5.97939        12.10664        -0.11995
C          7.16731         9.95632        -0.04302
C          7.23430        12.78620        -0.10464
C          6.04573        14.93676         0.16077
C          6.08686        16.35023         0.36389
C          7.26751        14.21071         0.02617
C          7.32552        17.03545         0.42571
C          6.12681        19.16472         0.77545
C          7.37271        18.45298         0.66709
C          8.48721         2.12616        -0.35499
C          8.48924         3.54335        -0.20261
C          9.78178         1.36422        -0.51900
C          9.72820         4.26025         0.01649
C          8.39504         6.30554         0.50620
C          8.38667         7.88420         0.54934
C          9.67726         5.61571         0.35087
C          9.65471         8.58014         0.31659
C          8.41986        10.63334        -0.15759
C          8.44567        12.04725        -0.20706
C          9.64727         9.88557        -0.12662
C          9.70760        12.74065        -0.26354
C          8.51878        14.88883         0.08437
C          8.55136        16.31297         0.29546
C          9.73195        14.15856        -0.09584
C          9.77875        16.98513         0.46413
C          8.60660        19.10393         0.78327
C          9.83885        18.39309         0.70088
C         11.02876         2.13879        -0.15864
C         10.99765         3.54365         0.07725
C         12.23669         1.46142        -0.16274
C         12.22022         4.20731         0.40761
C         10.90553         6.35133         0.68099
C         10.90963         7.87301         0.62052
C         12.24427         5.72094         0.32951
C         12.20330         8.54958         0.32831
C         10.91057        10.54017        -0.62057
C         10.91479        12.04023        -0.42700
C         12.18060         9.87099        -0.13375
C         12.13765        12.73052        -0.62413
C         10.98895        14.82520        -0.08112
C         11.01667        16.19977         0.45616
C         12.17104        14.17132        -0.46706
C         12.33464        16.92885         0.57795
C         11.09505        19.06671         0.78536
C         12.33290        18.40842         0.64553
C         13.47480         2.11236         0.13027
C         13.42755         3.50396         0.50022
C         14.68486         1.42936        -0.08213
C         14.69618         4.21829         0.81319
C         13.39796         6.47761         1.05386
C         13.43896         7.88930         0.49841
C         14.72309         5.71417         0.93496
C         14.66830         8.55313         0.25006
C         13.40098        10.55043        -0.34389
C         13.31615        11.92550        -0.78557
C         14.66137         9.90868        -0.17576
C         14.48689        12.43149        -1.37566
C         13.40195        14.96297        -0.53849
C         13.51652        16.25573         0.02126
C         14.54163        14.50973        -1.23393
C         14.75329        16.94216        -0.01427
C         13.57571        19.06497         0.56268
C         14.79540        18.36806         0.31231
C         15.98216         1.99748         0.24987
C         16.00464         3.49372         0.66629
C         17.24397         1.44176        -0.21169
C         17.23716         4.26905         0.49637
C         15.97325         6.45887         0.61500
C         15.93174         7.82364         0.39357
C         17.22209         5.69644         0.55669
C         17.19426         8.64663         0.52083
C         15.94221        10.75374        -0.25755
C         15.76567        11.93162        -1.22651
C         17.24692         9.94684        -0.27591
C         16.84634        12.80973        -1.61357
C         15.85110        14.96883        -0.95615
C         15.93075        16.24858        -0.36858
C         17.02294        14.17249        -1.30419
C         17.27698        16.83901        -0.08248
C         16.02175        19.03185         0.20867
C         17.24899        18.36057        -0.11569
C         18.44519         2.12101         0.00037
C         18.45376         3.55030         0.31515
C         19.68493         1.43853        -0.15370
C         19.68798         4.24135         0.32115
C         18.44977         6.39904         0.52145
C         18.46160         7.82876         0.42052
C         19.70266         5.66827         0.48244
C         19.67017         8.50852         0.36335
C         18.49288        10.51946        -0.44943
C         18.75621        11.78003        -1.14405
C         19.71579         9.90015         0.04824
C         19.72504        12.67219        -0.84452
C         18.34859        14.82096        -1.21078
C         18.39772        16.15122        -0.84526
C         19.68135        14.05864        -1.52352
C         19.63540        16.94603        -1.04905
C         18.41101        19.06963        -0.27585
C         19.66071        18.43017        -0.72950
C         20.92437         2.08574        -0.01824
C         20.93444         3.54089         0.14359
C         22.13508         1.36482         0.06074
C         22.13932         4.23053         0.13484
C         20.92684         6.34308         0.57288
C         20.92417         7.83011         0.82990
C         22.17429         5.65137         0.38063
C         22.15923         8.48923         0.22266
C         20.90039        10.65759         0.12266
C         20.87068        12.18567         0.01666
C         22.15303        10.00552         0.32430
C         22.18208        12.70464        -0.54433
C         20.93550        14.86372        -1.15754
C         20.92339        16.22088        -1.06663
C         22.22494        14.12427        -1.08933
C         22.16713        17.03525        -1.16544
C         20.94533        19.07054        -0.44482
C         22.16244        18.45541        -0.73121
C         23.38833         2.03672         0.19830
C         23.40035         3.48007        -0.24862
C         24.54693         1.40824         0.59430
C         24.67615         4.22099         0.08944
C         23.39078         6.34826         0.35331
C         23.43461         7.80602         0.74973
C         24.62074         5.69760        -0.23386
C         24.65375         8.55163         0.27983
C         23.37304        10.69352         0.29369
C         23.42354        12.10316        -0.02648
C         24.63262         9.95841         0.29453
C         24.61144        12.81590        -0.06453
C         23.49676        14.84994        -0.90599
C         23.50895        16.30076        -1.11770
C         24.65437        14.21355        -0.44999
C         24.71561        17.06226        -0.77643
C         23.39670        19.13462        -0.58524
C         24.65953        18.47919        -0.64553
C         25.78369         2.16385         1.00370
C         25.79948         3.59664         0.50782
C         27.06225         1.42930         0.71232
C         27.11131         4.32213         0.73601
C         25.88059         6.43352         0.10683
C         25.86980         7.86065         0.08645
C         27.10541         5.74040         0.21653
C         27.08943         8.58032        -0.00178
C         25.86036        10.65902         0.29185
C         25.84037        12.13312         0.39964
C         27.08295         9.96341         0.20327
C         27.13617        12.88060         0.38662
C         25.91076        14.95063        -0.38686
C         25.93959        16.37528        -0.59033
C         27.11771        14.29159        -0.05503
C         27.17245        17.10942        -0.56242
C         25.87550        19.18373        -0.43656
C         27.14365        18.56158        -0.46303
C         28.28560         2.06417         0.45150
C         28.32019         3.52006         0.27279
C         29.49903         1.33639         0.43002
C         29.47807         4.16518        -0.06272
C         28.28887         6.39636        -0.08975
C         28.30450         7.84560        -0.49700
C         29.49953         5.61793        -0.34835
C         29.62575         8.49873        -0.16644
C         28.36655        10.66902         0.42352
C         28.41428        12.13201         0.31143
C         29.66790         9.91011         0.24705
C         29.61620        12.78832         0.24064
C         28.33886        14.97548        -0.09086
C         28.37939        16.34873        -0.45396
C         29.58915        14.27017         0.27817
C         29.65563        16.92222        -0.72622
C         28.29360        19.37940        -0.16768
C         29.62509        19.01963        -0.47498
C         30.77276         1.93720         0.05334
C         30.75327         3.44072        -0.26902
C         32.06803         1.31702         0.36849
C         32.01217         4.21990        -0.11767
C         30.80284         6.34379        -0.58710
C         30.82526         7.82919        -0.38549
C         32.04117         5.57149        -0.30907
C         32.05908         8.54102        -0.40020
C         30.89774        10.68089         0.00949
C         30.88367        12.08396         0.08530
C         32.10349         9.97333        -0.29121
C         32.11289        12.80120        -0.08273
C         30.89019        14.99611         0.21688
C         30.88928        16.39533        -0.29258
C         32.13954        14.22206         0.04475
C         32.05758        17.16104        -0.20544
C         30.86446        19.39726         0.04750
C         32.09029        18.62536        -0.11928
C         33.26819         2.02881         0.38047
C         33.23776         3.51505         0.32736
C         34.52257         1.40070         0.56447
C         34.54524         4.27284         0.34181
C         33.32012         6.29510        -0.49379
C         33.31104         7.80836        -0.63939
C         34.59758         5.66576        -0.14257
C         34.58773         8.51746        -0.51607
C         33.30974        10.69319        -0.50240
C         33.33464        12.11539        -0.41051
C         34.49548         9.92370        -1.05015
C         34.53827        12.87301        -0.60376
C         33.32547        14.92939         0.04793
C         33.26058        16.40407         0.23077
C         34.58121        14.25271        -0.20863
C         34.53746        17.13372         0.42497
C         33.32051        19.26047         0.05349
C         34.63059        18.53874        -0.13033
C         35.76656         2.10346         0.54476
C         35.80274         3.51816         0.36411
C         37.00110         1.40595         0.61676
C         37.01853         4.22530         0.26786
C         35.79265         6.35231        -0.25134
C         35.80705         7.80729        -0.47726
C         37.04889         5.65880        -0.01414
C         37.03414         8.49716        -0.52830
C         35.81976        10.69094        -1.02868
C         35.80250        12.19628        -0.98750
C         37.06012        10.00465        -0.43315
C         37.12630        12.94146        -0.86718
C         35.79205        14.93424        -0.00428
C         35.79250        16.31382         0.51408
C         37.11894        14.43821        -0.52560
C         37.07648        17.06541         0.66329
C         35.88479        19.24203         0.34259
C         37.04947        18.55401         0.57819
C         38.22225         2.09272         0.57843
C         38.22529         3.51008         0.45270
C         39.48358         1.36962         0.51142
C         39.47283         4.26183         0.54752
C         38.26250         6.33153        -0.15220
C         38.31509         7.72904        -0.74587
C         39.49768         5.66413         0.12281
C         39.56643         8.49691        -0.35297
C         38.37673        10.60954        -0.99374
C         38.40191        12.14702        -0.79285
C         39.59757         9.90138        -0.43805
C         39.62535        12.81263        -0.25304
C         38.28029        14.83558         0.43039
C         38.35389        16.34577         0.48772
C         39.60246        14.18622         0.07374
C         39.53725        17.04077         0.56164
C         38.32307        19.20557         0.73872
C         39.51413        18.49528         0.73352
C         40.68112         1.99146         0.37848
C         40.80802         3.45288         0.50575
C         41.96526         4.18350         0.00364
C         40.73412         6.31903         0.01877
C         40.75456         7.77611        -0.07392
C         41.94278         5.54947        -0.08691
C         41.94299         8.49151         0.17028
C         40.80189        10.61125        -0.20381
C         40.83156        12.07895        -0.18482
C         41.96148         9.87628         0.11897
C         42.03032        12.79320         0.02414
C         40.81359        14.89119         0.27436
C         40.81254        16.33982         0.51165
C         42.02466        14.17022         0.18432
C         41.97538        17.06819         0.67106
C         40.77158        19.17787         0.87695
C         41.95071        18.48305         0.85497
O         22.89802        16.75457        -2.38998
O         33.30828         6.91733        -1.82456
O         10.84915         7.14862         1.88711
O         26.40411        12.66677         1.65588
O         29.08292        10.14184         1.59614
O         29.69946        18.04235        -1.52662
O         37.97244        12.77790        -2.05702
O          8.25625         7.06504         1.74098
O         16.10106         2.45245         1.66308
O         36.38146        16.50559         1.87137
O         11.75402        16.27107         1.75009
O          2.71841        12.64520        -1.42812
O         14.82296         4.86755         2.14243
O         33.68430        16.92203         1.56805
O         30.21610        14.83206         1.50664
O         19.53334        17.92554        -2.14155
O         14.35051        13.54114        -2.22995
O         33.74463         4.11414         1.58421
O          4.83335         5.09621        -1.83592
O         35.90043        11.44059        -2.27252
O         40.25739         3.98335         1.74839
O         22.25326        12.94614        -1.96901
O         30.03305         5.88343        -1.74139
O         30.76542         2.49081        -1.35246
O         17.89768        12.10877        -2.18668
O          2.56465        16.96353         2.68900
H          3.42051        17.37108         2.94289
O         34.80798        18.34103        -1.58128
H         34.89036        19.22540        -1.99642
O         28.19599         7.88906        -1.96798
H         28.84424         7.22431        -2.31445
O         34.13322         9.70599        -2.45317
H         34.55786        10.43178        -2.97064
O         20.78138        12.72630         1.36247
H         19.98875        12.34665         1.79634
O         17.57752        16.51720         1.32961
H         16.81083        16.81360         1.86568
O         25.71347         2.26473         2.49650
H         24.81448         2.58714         2.72393
O         37.32332        15.18566        -1.75463
H         37.76942        14.57602        -2.38984
O         36.98683        10.35328         0.98441
H         37.66501         9.83618         1.46902
O         13.13163         6.62355         2.45381
H         13.49205         5.82499         2.90684
O         27.28664         4.45992         2.17912
H         26.92069         3.63735         2.59584
O         24.49205         5.86173        -1.68942
H         23.91731         5.11962        -2.01175
O         20.93195         8.04112         2.28550
H         20.12419         7.62066         2.64962
O         38.40596        10.32730        -2.41186
H         37.86569        11.03419        -2.84743
O         10.89530        10.31734        -2.07902
H         11.65632        10.80910        -2.45642
O         17.14929         9.09172         1.95126
H         16.84477         8.32755         2.48827
O         23.54397         7.87183         2.19617
H         22.63491         7.83235         2.58338
O          9.73908         0.12645         0.20531
H          9.74004         0.33284         1.16234
O         16.01644        11.42461         1.05200
H         16.27335        10.73017         1.71029
O         38.40474         7.53711        -2.20159
H         38.43892         8.44654        -2.59535
O         23.35893         3.41590        -1.72670
H         24.04832         2.77879        -2.01244
O         12.47269         5.99282        -1.09157
H         11.84112         5.45347        -1.61340
O         22.08151         8.20033        -1.19552
H         22.91715         8.48602        -1.62170
O         37.96404        14.33129         1.75488
H         37.32911        14.97641         2.16345
O         19.75549        13.84960        -2.94745
H         19.91045        14.71495        -3.37968
H          0.17447         1.49105        -0.22242
H          0.10851         3.94987        -0.27218
H          2.34327         0.26441        -0.26819
H          0.07637         5.88370        -0.32992
H          0.05389         8.30650        -0.16987
H          0.11304        10.20835         0.41177
H          0.11166        12.61763         0.63049
H          0.13270        14.65307         0.31306
H          0.21364        17.01128         0.97879
H          1.53039        19.14366         0.99472
H          4.80582         0.29819        -0.41802
H          3.67809        20.32696         0.71354
H          7.32174         0.32316        -0.46929
H          6.15128        20.25894         0.89133
H          9.86211         1.07915        -1.60705
H          8.62748        20.18966         0.96147
H         12.24742         0.38944        -0.40721
H         11.08877        20.16157         0.90002
H         14.65555         0.44204        -0.56556
H         13.61115        20.15986         0.67142
H         17.25687         0.43478        -0.65424
H         16.04849        20.12692         0.32117
H         19.66506         0.35178        -0.32412
H         18.40967        20.16325        -0.14311
H         22.10101         0.26762         0.13949
H         20.93911        20.08350        -0.01499
H         24.51601         0.33346         0.83480
H         23.37622        20.20980        -0.35357
H         27.05055         0.33500         0.82946
H         25.82721        20.27216        -0.28100
H         29.49798         0.29626         0.78875
H         28.10507        20.34707         0.32164
H         32.08577         0.23756         0.58403
H         30.92283        20.29048         0.68648
H         34.54882         0.30475         0.66036
H         33.33630        20.35033         0.20877
H         36.99650         0.30932         0.70336
H         35.91641        20.34233         0.28745
H         39.43252         0.27146         0.46173
H         38.34956        20.30302         0.81688
H         41.59238         1.40440         0.18838
H         42.85720         3.62022        -0.30800
H         42.86091         6.06931        -0.39656
H         42.86690         7.95309         0.42063
H         42.90512        10.39499         0.33073
H         42.99528        12.27015         0.03457
H         42.98663        14.68678         0.30025
H         42.95574        16.57349         0.65538
H         40.76781        20.26929         1.01077
H         42.90552        19.01457         0.97296
