         252
 CSIRO Nanostructure Databank - Neutral Graphene Oxide Data Set
C         30.73850        31.44139        -0.83065
C         30.74654        32.72761        -0.80211
C         30.68728        35.83768        -0.99135
C         30.66895        37.07744        -1.13153
C         30.71407        40.17602        -1.65290
C         30.80923        41.46285        -1.82273
C         32.82980        28.65925         0.51928
C         31.96008        29.21170        -0.19006
C         32.83326        31.39453         0.33331
C         31.72560        30.60574        -0.37627
C         32.77091        32.90109         0.43669
C         31.67574        33.61619        -0.29643
C         32.84344        35.80163        -0.02025
C         31.72425        35.02739        -0.41927
C         32.79192        37.28966        -0.11633
C         31.70697        38.00769        -0.87937
C         33.12436        39.97931        -1.10151
C         31.81919        39.34300        -1.26163
C         33.42429        41.24863        -1.82958
C         30.69836        42.79746        -1.86083
C         32.88931        44.24659        -1.60860
C         31.86113        43.51195        -1.76560
C         35.51865        27.24326         1.80337
C         35.22327        28.67488         1.73023
C         34.02162        29.28106         1.10942
C         35.35766        31.50501         0.91659
C         34.19952        30.66590         0.37576
C         35.30056        32.95289         0.42655
C         34.00748        33.70391         0.92990
C         35.22048        35.90590         0.69615
C         34.03888        35.18315         0.49697
C         35.32994        37.33343         0.44718
C         34.06580        38.07101         0.16700
C         35.37390        40.22930         0.03487
C         34.15979        39.42834        -0.40362
C         35.47728        41.57983        -0.61009
C         34.19553        42.25475        -0.92437
C         35.35002        44.45311        -0.83605
C         34.29268        43.65458        -1.56432
C         35.59653        45.76502        -0.74003
C         37.77572        27.19002         0.90844
C         36.57936        26.64037         1.63271
C         37.83415        28.67791         1.34994
C         36.55179        29.43118         1.65713
C         37.80583        31.60736         1.43095
C         36.50375        30.89104         1.33631
C         37.84787        33.06229         1.11056
C         36.58023        33.75751         0.73602
C         37.75319        35.94100         1.32388
C         36.40344        35.16250         1.29578
C         37.80800        37.32063         0.72680
C         36.52729        38.02789         0.47122
C         37.80024        40.26021         0.46063
C         36.66278        39.42471        -0.14130
C         37.93132        41.66945         0.02182
C         36.77590        42.31141        -0.73555
C         37.92468        44.51635        -0.39356
C         36.60787        43.74881        -0.20833
C         37.88372        45.93506        -0.63329
C         36.62435        46.55312        -0.57025
C         40.69303        24.65277         1.08648
C         39.57352        25.29915         1.24763
C         40.17742        27.31870         0.26614
C         39.12419        26.55428         1.04868
C         40.17109        28.80088         0.43194
C         39.07739        29.41830         0.95995
C         40.32014        31.64929         0.87763
C         39.12048        30.86537         1.27169
C         40.29509        33.08124         1.17288
C         39.12436        33.76250         1.46616
C         40.40255        36.02297         1.72909
C         39.07047        35.24295         1.63445
C         40.34033        37.43824         1.21671
C         39.07857        38.10655         0.89427
C         40.24104        40.44349         1.43261
C         39.00211        39.59733         1.05331
C         40.33578        41.76391         0.65680
C         39.11149        42.39137         0.16646
C         40.39589        44.52127        -0.13428
C         39.13187        43.81997        -0.18291
C         40.45282        45.93780        -0.58405
C         39.12865        46.67385        -0.87589
C         40.22814        48.76128        -0.22308
C         39.24123        48.11502        -0.62207
C         43.02154        24.85254        -0.06760
C         41.71980        25.21468         0.37826
C         42.57936        27.48073        -0.65489
C         41.45169        26.63550        -0.12928
C         42.54756        28.83561        -0.53313
C         41.53435        29.49610         0.41213
C         42.61110        31.79580        -0.02363
C         41.43463        31.01918         0.34502
C         42.68524        33.13965         0.27459
C         41.59722        33.78524         1.05181
C         42.63383        36.05890         0.41034
C         41.62763        35.26781         1.22386
C         42.73989        37.48622         0.92038
C         41.54081        38.17058         1.12979
C         42.85929        40.38858         1.38300
C         41.55333        39.63784         1.43090
C         42.80638        41.92815         1.35066
C         41.52391        42.47808         0.69086
C         42.79283        44.63388         0.59764
C         41.54738        43.86553         0.30376
C         42.81816        46.10751         0.36665
C         41.69524        46.76751        -0.37614
C         42.76064        48.85817         0.48446
C         41.36792        48.40510         0.61042
C         43.89314        25.43696        -0.73027
C         44.84792        27.53638        -1.76518
C         43.61648        26.72952        -1.50701
C         44.81287        29.02678        -1.75603
C         43.58244        29.69924        -1.18501
C         44.99460        31.89249        -0.95296
C         43.68208        31.17038        -0.85432
C         45.04696        33.22125        -0.55361
C         43.88293        33.92611        -0.01114
C         45.11205        36.12968        -0.16629
C         43.91899        35.28904         0.22073
C         45.25990        37.40273         0.64809
C         44.03331        38.16587         1.05152
C         45.28611        40.28380         0.72559
C         44.10060        39.64291         1.03878
C         45.27237        41.73628         0.45238
C         44.06482        42.55267         0.74791
C         45.31804        44.63193         0.02097
C         44.08816        43.89988         0.56786
C         45.29602        46.15305         0.35316
C         44.13084        46.84216         0.37110
C         43.84195        48.24624         0.57227
C         47.20932        27.71060        -2.25896
C         46.07470        27.10133        -2.15215
C         47.43048        29.02480        -1.95388
C         46.15472        29.79116        -1.80884
C         47.47349        31.73449        -1.01563
C         46.22963        31.17963        -1.26643
C         47.61508        33.17753        -0.82561
C         46.30449        33.97091        -0.67450
C         47.60286        35.94878         0.07980
C         46.38877        35.34183        -0.15479
C         47.68313        37.37735         0.29944
C         46.53055        38.14719         0.46277
C         47.77820        40.28727         0.50979
C         46.53416        39.57376         0.53347
C         47.85586        41.68282         0.52340
C         46.61248        42.45155         0.29259
C         47.83594        44.55931         0.59699
C         46.62105        43.91909         0.39397
C         47.73489        46.00923         0.63860
C         46.64047        46.58389         0.51674
C         50.00764        29.06672        -1.76314
C         48.71376        29.79083        -2.01154
C         50.02708        31.66997        -0.77683
C         48.72156        30.88164        -0.88713
C         50.01022        32.91455        -0.15446
C         48.82743        33.71483        -0.18487
C         50.20007        35.81036         0.40329
C         48.81379        35.10191         0.25867
C         50.26681        37.29704         0.15522
C         48.98624        38.06783         0.18562
C         50.36274        40.19936         0.72024
C         49.02831        39.49843         0.62968
C         50.37234        41.69451         0.65818
C         49.11781        42.38531         0.64653
C         50.36234        44.35891         0.73014
C         49.06786        43.82869         0.68820
C         51.07453        29.52403        -1.34538
C         52.40371        31.51901        -0.29687
C         51.37777        30.99965        -1.25499
C         52.40714        32.66341         0.16677
C         51.26111        33.52166         0.59334
C         52.51065        35.81515         0.14396
C         51.40791        34.98248         0.28033
C         52.63100        37.08083         0.09986
C         51.58888        38.01686         0.32581
C         52.70431        40.30082         0.39033
C         51.61716        39.39731         0.42424
C         52.76698        41.54538         0.49492
C         51.62750        42.40468         0.62380
C         51.49728        43.80901         0.68853
O         42.31905        39.87123         2.65012
O         47.01995        33.90386        -1.96094
O         38.68448        37.53285        -0.45970
O         42.52848        45.59535         1.70381
O         37.45378        28.98971         2.71626
O         38.61351        31.26838         2.58763
O         37.56895        33.49911        -0.28720
O         38.24199        35.83333         2.68423
O         37.88094        40.00519         1.90754
O         34.57671        30.40923        -0.93546
O         45.83445        41.98994        -0.89255
O         33.03846        37.92868         1.18973
O         32.30670        32.02099         1.53302
O         44.86296        37.39311         2.04074
O         33.24117        41.40426        -3.00991
O         40.32796        26.75192        -1.08379
O         43.07476        30.69871        -2.11795
O         49.42123        35.41159         1.56549
O         42.17507        34.42718         2.27231
O         39.92046        46.13642        -1.95336
O         45.27545        29.66579        -2.97472
O         34.19483        29.30263         2.53147
O         49.69213        39.67694         1.92720
O         49.64380        37.74871        -1.10103
O         41.00107        48.16266         1.90917
H         41.78947        47.97252         2.45735
O         42.10335        29.22824         1.73816
H         41.52469        29.64362         2.41420
O         42.76149        42.39170         2.71360
H         42.15620        41.78240         3.20197
O         50.98881        33.33313         1.97806
H         51.58003        33.90724         2.50635
O         33.41432        42.32949         0.30361
H         33.81909        43.02589         0.86645
O         35.16238        32.92936        -1.00573
H         35.08795        31.97271        -1.30546
O         45.20840        44.57459        -1.42375
H         45.39041        43.63959        -1.69084
O         51.64987        31.48133        -2.54249
H         52.48020        31.08145        -2.87163
O         40.62697        36.23431         3.14837
H         41.19846        35.49801         3.47207
O         33.95147        33.71462         2.35470
H         33.39294        32.95349         2.64390
O         43.00779        26.39147        -2.74044
H         43.68540        26.02469        -3.34476
O         42.05748        36.18557        -0.93086
H         42.78842        36.46667        -1.53169
O         48.57612        30.17459         0.37036
H         49.36624        29.60208         0.48990
O         36.35416        43.65355         1.20653
H         36.45239        44.54538         1.60237
O         36.06870        34.90888         2.67402
H         35.84520        35.75388         3.11523
O         42.18675        47.22426        -1.59707
H         41.43691        47.24105        -2.23835
O         34.73736        43.50140        -2.91203
H         34.69391        44.37236        -3.35777
O         44.85861        36.58543        -1.54530
H         45.21085        35.90472        -2.16039
O         37.48064        27.22337        -0.48554
H         37.77723        26.39192        -0.91144
O         40.06452        40.87768         2.79902
H         39.09231        40.93685         2.96187
O         35.18480        40.42756         1.45994
H         34.33726        40.91482         1.57564
O         37.14647        42.39721        -2.13427
H         37.06491        41.49878        -2.52298
O         36.88622        39.27885        -1.56038
H         37.58663        38.58958        -1.67208
O         48.80031        30.44517        -3.26643
H         48.57307        29.81452        -3.98057
