         480
 CSIRO Nanostructure Databank - Neutral Graphene Oxide Data Set
C         37.50115        50.09665         1.05264
C         36.32846        50.73875         1.42019
C         37.57581        52.75073         1.90029
C         36.36658        52.07519         1.84772
C         39.98829        48.75009         0.27616
C         39.98197        50.09182         0.71959
C         38.74844        50.76344         1.09734
C         40.05629        52.82633         1.57796
C         38.78809        52.11904         1.52964
C         40.12915        54.18128         1.98109
C         42.41567        48.73633         0.05875
C         41.17231        48.08879        -0.02986
C         42.43527        50.12475         0.42223
C         41.21892        50.78920         0.78807
C         42.50731        52.86356         1.24855
C         41.26145        52.16217         1.20876
C         42.54319        54.22949         1.63610
C         41.32972        54.86330         2.00345
C         44.88560        45.88016        -0.33285
C         43.70812        46.56576        -0.18485
C         44.87258        48.69667        -0.07022
C         43.67543        48.00896        -0.07666
C         44.85473        50.16856        -0.10881
C         43.65277        50.85129         0.40171
C         44.95339        52.91579         0.83958
C         43.71997        52.21293         0.81221
C         45.01378        54.24033         1.37034
C         43.80142        54.94131         1.65522
C         45.07126        57.01206         1.75150
C         43.87191        56.33583         1.88141
C         47.43180        44.45403        -0.81942
C         47.36765        45.82220        -0.42133
C         46.16399        46.51845        -0.23696
C         47.40346        48.70445        -0.29007
C         46.16571        47.97042         0.22026
C         47.41424        50.18518        -0.50682
C         46.10607        50.95069        -0.35261
C         47.45019        52.72592         0.83078
C         46.16767        52.41506         0.08342
C         47.47671        54.03238         1.58336
C         46.27589        54.91337         1.52491
C         47.51217        57.12839         1.32385
C         46.29958        56.32263         1.58363
C         47.46708        58.29888         0.54695
C         49.90165        44.39120        -0.75698
C         48.62856        43.77748        -0.94919
C         49.94594        45.79497        -0.47063
C         48.67265        46.48737        -0.16495
C         49.95809        48.71932        -0.24315
C         48.69391        47.98654        -0.04746
C         49.96605        50.11230        -0.24478
C         48.73681        50.96114        -0.52995
C         49.93409        52.84503         0.58704
C         48.73680        52.18873         0.35351
C         49.98035        54.15229         1.23601
C         48.81853        54.58494         1.83731
C         49.99837        57.18907         1.20257
C         48.78831        56.69466         1.72389
C         49.91124        58.45434         0.55424
C         48.64854        58.98537         0.24646
C         52.39190        41.54526        -1.19210
C         51.18021        42.25540        -1.04862
C         52.38440        44.33894        -0.53112
C         51.12232        43.63132        -0.81059
C         52.40631        45.82111        -0.61123
C         51.14688        46.52377        -0.46340
C         52.39186        48.67063        -0.34461
C         51.17459        47.97149        -0.33099
C         52.41908        50.06012        -0.03838
C         51.19752        50.79664        -0.02887
C         52.40707        52.83064         0.63963
C         51.19956        52.18310         0.31946
C         52.43128        54.24523         0.97749
C         51.21486        54.95182         1.20581
C         52.45276        57.05983         0.91861
C         51.22760        56.38997         1.21978
C         52.46842        58.53088         0.69545
C         51.15747        59.24166         0.41236
C         52.34636        61.16758        -0.56545
C         51.19340        60.50679        -0.35313
C         54.95834        40.08309        -1.57546
C         54.90036        41.47789        -1.34389
C         53.64147        42.15716        -1.12055
C         54.92121        44.32513        -1.00627
C         53.69143        43.57098        -0.71123
C         54.85053        45.77975        -1.08848
C         53.59237        46.49248        -0.78071
C         54.88235        48.50663        -0.10441
C         53.64692        48.00215        -0.83840
C         54.87118        49.91560         0.46279
C         53.63849        50.73165         0.30802
C         54.86261        52.76157         1.10900
C         53.63130        52.09541         0.60495
C         54.95344        54.24718         1.06264
C         53.67722        54.93843         0.96204
C         54.95500        56.96038         0.40001
C         53.65437        56.34554         0.83581
C         54.90236        58.45612         0.20955
C         53.71655        59.15950         0.19054
C         54.90984        61.14695        -0.96098
C         53.65963        60.58662        -0.22471
C         55.00995        62.35231        -1.85761
C         57.39514        40.08315        -1.43680
C         56.16789        39.40917        -1.63149
C         57.36854        41.49622        -1.25931
C         56.13274        42.19754        -1.24843
C         57.38638        44.36504        -1.14114
C         56.12607        43.64494        -1.16648
C         57.41377        45.75376        -0.91996
C         56.19106        46.54520        -1.01994
C         57.36686        48.56917        -0.16737
C         56.17914        47.91422        -0.45953
C         57.36787        49.93743         0.34339
C         56.16710        50.58532         0.62073
C         57.41686        52.70145         1.28250
C         56.13488        51.96374         1.13455
C         57.40826        54.17141         1.36579
C         56.17322        54.91880         1.22910
C         57.42299        57.16280         0.71854
C         56.14675        56.47699         1.24018
C         57.45214        58.30754        -0.30594
C         56.09421        59.00273        -0.38604
C         57.78182        61.27999        -1.29420
C         55.95338        60.14490        -1.12511
C         57.41233        62.71786        -1.28366
C         56.15309        63.05129        -2.03541
C         59.92775        37.26651        -1.49573
C         58.74449        37.95599        -1.59574
C         59.82387        40.05377        -0.97937
C         58.65704        39.36762        -1.33430
C         59.85351        41.47970        -0.92349
C         58.61009        42.22188        -1.11336
C         59.92865        44.33902        -1.20204
C         58.60896        43.61321        -1.12249
C         59.84889        45.78614        -0.80272
C         58.65656        46.45274        -0.65799
C         59.81509        48.59337        -0.20807
C         58.63038        47.89084        -0.35873
C         59.80694        50.00260         0.06932
C         58.63493        50.63761         0.42776
C         59.94282        52.84125         0.78024
C         58.71479        52.01830         0.97151
C         59.94563        54.23337         1.14718
C         58.66991        54.72833         1.63910
C         59.92394        57.41705         1.04859
C         58.59217        56.87013         1.32421
C         59.90437        58.71324         0.41153
C         58.53489        59.33158         0.20347
C         59.80205        61.51815         0.02522
C         58.67168        60.69108        -0.45887
C         59.73457        62.99031        -0.19547
C         58.47073        63.65002        -0.71285
C         59.70863        65.80501        -0.86674
C         58.58321        65.08842        -1.06230
C         62.42072        35.75971        -0.99552
C         62.29576        37.16235        -0.75325
C         61.11402        37.86810        -0.97115
C         62.31373        40.02897        -0.49885
C         61.00196        39.28075        -0.43442
C         62.29998        41.44249        -0.52413
C         61.05742        42.15032        -0.65726
C         62.33612        44.33453        -0.44783
C         61.00367        43.63227        -0.36622
C         62.37336        45.74055        -0.47445
C         61.14474        46.54615        -0.86095
C         62.35848        48.57940        -0.16005
C         61.08495        47.80477        -0.01115
C         62.35560        50.04719        -0.16381
C         61.06283        50.78310        -0.03495
C         62.34536        52.92423         0.29450
C         61.11106        52.20122         0.39109
C         62.31530        54.36085         0.39350
C         61.12837        55.02013         0.86118
C         62.38043        57.23512         0.36363
C         61.20770        56.51578         0.93706
C         62.35332        58.65760         0.23918
C         61.11019        59.39898         0.23992
C         62.30870        61.51283        -0.12616
C         61.11032        60.81237         0.01640
C         62.30759        62.97910        -0.37337
C         61.01569        63.71388        -0.45456
C         62.25659        65.92625        -0.14466
C         60.95263        65.20337        -0.30710
C         62.40161        67.32893        -0.60363
C         64.71416        35.70777        -0.11624
C         63.54245        35.05680        -0.62413
C         64.74154        37.10859        -0.04537
C         63.42844        37.84897        -0.01419
C         64.75685        39.99891        -0.29612
C         63.52217        39.32419        -0.32243
C         64.77185        41.43365        -0.36450
C         63.54207        42.15363        -0.41505
C         64.78595        44.26814        -0.22804
C         63.55297        43.58812        -0.36132
C         64.82210        45.73809         0.11987
C         63.56028        46.45436        -0.25703
C         64.80566        48.63847        -0.31603
C         63.55536        47.89251        -0.22206
C         64.83453        49.99586        -0.11822
C         63.59654        50.72741         0.36194
C         64.77069        52.91716        -0.13795
C         63.56820        52.22094         0.10783
C         64.71995        54.34905        -0.21959
C         63.54269        55.06845         0.07216
C         64.74362        57.26693        -0.31655
C         63.56474        56.52991         0.04760
C         64.75224        58.66045        -0.30923
C         63.55012        59.37970        -0.04691
C         64.78120        61.55633        -0.15066
C         63.53476        60.81174        -0.15009
C         64.75916        63.01778        -0.00825
C         63.55965        63.73035        -0.11809
C         64.72776        65.86179         0.16265
C         63.54155        65.15495        -0.04107
C         64.65412        67.36291         0.41539
C         63.54546        67.98975        -0.39548
C         67.07194        32.85400         0.87947
C         65.92294        33.57348         0.37980
C         67.03447        35.71607         0.89260
C         65.88641        34.94015         0.28904
C         67.15843        37.13531         0.39386
C         65.97361        37.83063         0.11312
C         67.21491        39.95113        -0.09291
C         66.01079        39.27826        -0.09084
C         67.27053        41.36508        -0.60187
C         66.01002        42.14616        -0.31718
C         67.24894        44.30362        -0.00074
C         65.99441        43.54856        -0.24726
C         67.28302        45.77494        -0.27110
C         66.06985        46.45009        -0.35875
C         67.28509        48.64748        -0.82221
C         65.97232        47.86873        -0.89798
C         67.27336        50.07609        -0.52897
C         66.04580        50.77158        -0.30598
C         67.22691        52.85259        -0.88335
C         66.00065        52.17659        -0.32175
C         67.26623        54.33834        -0.63014
C         65.99794        55.09559        -0.42407
C         67.25048        57.28162        -1.13840
C         65.87276        56.50541        -0.98771
C         67.25862        58.71668        -0.63893
C         65.95078        59.45595        -0.79927
C         67.27199        61.52326         0.13571
C         65.96778        60.86781        -0.23865
C         67.23301        63.04258         0.08550
C         65.98972        63.73699         0.11267
C         67.20365        65.85977         0.44218
C         65.97620        65.16524         0.23045
C         67.18557        67.32122         0.81882
C         65.99060        68.05963         0.27591
C         67.31888        70.10566         0.13827
C         66.09325        69.41150         0.03335
C         69.52125        31.40489         1.69747
C         69.49627        32.80574         1.54431
C         68.26226        33.48091         1.14019
C         69.58719        35.69747         1.07044
C         68.32694        34.93458         0.82173
C         69.51859        37.17521         1.07728
C         68.39900        37.81862         0.54547
C         69.56817        40.03105         0.82035
C         68.54080        39.23173         0.03661
C         69.60387        41.41948         0.64555
C         68.64782        42.07277        -0.34781
C         69.81875        44.25053         0.02584
C         68.51036        43.53312         0.05691
C         69.81200        45.75252        -0.12134
C         68.53237        46.44685        -0.35070
C         69.78297        48.63765        -0.10789
C         68.60163        47.88492        -0.58855
C         69.75307        50.05389        -0.15211
C         68.52568        50.77333        -0.43197
C         69.73499        52.92331        -0.37588
C         68.51651        52.17220        -0.48251
C         69.75676        54.30713        -0.62911
C         68.52502        55.03649        -1.12845
C         69.72285        57.23818        -0.39829
C         68.45956        56.48915        -0.64844
C         69.71726        58.72249        -0.38667
C         68.44418        59.40112        -0.51411
C         69.75592        61.60936        -0.36254
C         68.42500        60.91366        -0.68158
C         69.72619        63.07063         0.01667
C         68.42311        63.76180         0.15913
C         69.68083        65.85397         0.68575
C         68.42143        65.16819         0.41896
C         69.70681        67.28592         0.73505
C         68.49931        68.02531         0.59259
C         69.79747        70.14252         0.49629
C         68.52781        69.42983         0.41574
C         69.86638        71.54649         0.34510
C         71.85755        31.45627         2.30596
C         70.68215        30.73492         2.07539
C         71.85717        32.84187         2.16914
C         70.69229        33.54510         1.79880
C         71.74071        35.78775         2.20678
C         70.72458        35.00487         1.69729
C         71.71040        37.20913         2.13390
C         70.64229        37.91275         1.58630
C         71.57177        40.16247         2.18986
C         70.59117        39.37425         1.55193
C         71.61720        41.53551         2.00270
C         70.68258        42.19143         1.17181
C         71.98166        44.36084         1.14259
C         70.87769        43.59575         0.80733
C         72.03185        45.76528         0.91791
C         70.96927        46.49770         0.40370
C         72.06625        48.72179         0.73835
C         70.93531        47.94937         0.35592
C         72.07948        50.09186         0.60365
C         70.93369        50.80470         0.14792
C         72.17783        52.96135         0.01304
C         70.94891        52.22357        -0.03439
C         72.24405        54.27883        -0.32547
C         71.03374        55.02087        -0.67793
C         72.22664        57.30330        -0.21019
C         71.03375        56.54637        -0.62318
C         72.13693        58.62594         0.06151
C         70.90470        59.38393        -0.09131
C         72.01480        61.49610         0.60995
C         70.93560        60.82816         0.06214
C         72.01538        62.89421         0.87179
C         70.90564        63.68302         0.65578
C         72.07585        65.82929         1.14408
C         70.87841        65.12325         0.86695
C         72.11400        67.21232         1.12974
C         70.95111        67.97486         0.88267
C         72.20528        70.13962         0.91463
C         70.99179        69.42206         0.77943
C         72.24526        71.51760         0.76801
C         71.06908        72.22563         0.47659
O         48.86082        55.68587         2.69858
O         58.62160        55.92492         2.35817
O         47.25470        52.73943         2.27952
O         61.67777        63.30867        -1.69725
O         68.90563        56.67856         0.71390
O         53.12585        43.82520         0.62893
O         67.81229        43.84174         1.30857
O         69.20771        35.19180        -0.29558
O         60.82855        57.18838         2.17369
O         46.30674        53.26446        -1.14866
O         56.94344        60.45738        -2.06882
O         48.71274        47.16532         1.16868
O         66.91037        54.81920         0.69523
O         51.82328        59.33692         1.72957
O         54.61441        61.46082         0.43654
O         54.68877        48.72551         1.32122
O         58.23020        52.09532         2.36002
O         61.73523        50.62008        -1.35490
O         68.16610        48.31227        -1.94903
O         61.35087        65.71824         1.00216
O         47.33820        49.24764        -1.64068
O         70.04423        62.63486        -1.37639
O         70.18047        44.83417        -1.25413
O         45.22529        50.72243        -1.49463
O         55.31955        52.13215         2.35648
O         67.17734        41.15139        -2.12121
O         55.49701        46.34814        -2.31120
O         57.33042        63.25487         0.09144
O         71.15658        55.88402        -1.93059
O         59.60477        62.44390         1.16102
O         66.74119        35.82835         2.32976
H         65.90890        36.33927         2.42246
O         64.28651        67.52124         1.82141
H         65.07983        67.25126         2.34671
O         64.88816        45.79076         1.59892
H         65.63987        45.22320         1.87867
O         65.36390        56.27821        -2.32630
H         65.43751        57.13444        -2.80750
O         63.04091        37.78647         1.42843
H         62.86904        36.84138         1.63259
O         57.85024        57.78922        -1.58315
H         57.13427        57.18379        -1.87831
O         53.77950        48.41277        -2.23337
H         54.42973        47.79156        -2.65030
O         67.11414        52.71873        -2.33715
H         67.13189        51.76180        -2.55231
O         63.52533        50.55495         1.81560
H         64.30768        50.99405         2.21131
O         55.23083        56.42930        -0.94925
H         54.43589        56.58475        -1.50208
O         66.99895        67.32274         2.31097
H         67.17023        68.24166         2.61288
O         45.01056        53.35994        -1.78427
H         44.85109        52.41773        -2.07184
O         48.89529        51.43642        -1.89898
H         48.56047        50.72263        -2.48700
O         65.65589        47.70980        -2.31693
H         66.52319        47.65517        -2.78407
O         61.03673        47.34771         1.37504
H         61.08871        48.12912         1.96469
O         61.32276        46.93693        -2.24703
H         61.30261        46.10685        -2.77781
O         67.54708        61.16639         1.52562
H         66.80087        61.48325         2.07704
O         55.93154        56.88652         2.59627
H         56.73687        56.65801         3.11059
O         67.48501        57.45233        -2.56347
H         67.67516        56.55079        -2.93445
O         69.08129        39.11348        -1.32026
H         69.23161        40.02974        -1.66120
O         46.24703        47.98471         1.67983
H         47.09101        47.52557         1.92393
O         65.75017        59.61352        -2.24289
H         66.55765        60.07358        -2.58146
O         67.02214        42.46564        -2.73230
H         66.15473        42.38366        -3.19916
O         60.69322        39.14174         0.99977
H         61.48041        38.70012         1.41416
O         68.57642        55.02246        -2.57733
H         69.50663        55.24682        -2.82533
O         68.12066        61.14014        -2.07999
H         68.71727        61.87004        -2.38230
O         69.41326        42.03063        -1.57491
H         68.94055        42.54620        -2.26614
O         58.06165        59.67501         1.53934
H         58.51940        60.49057         1.84157
O         60.56187        43.75243         1.01892
H         61.24149        43.34569         1.59609
O         60.37848        44.29246        -2.59947
H         59.60827        44.51247        -3.16583
H         37.44540        49.05035         0.72440
H         35.37107        50.20136         1.37826
H         37.57749        53.79491         2.23950
H         35.43890        52.58562         2.14100
H         39.04685        48.19249         0.18795
H         39.22043        54.71877         2.28128
H         41.11779        47.03706        -0.34110
H         41.33160        55.91293         2.32533
H         44.84030        44.79570        -0.50676
H         42.76450        46.00507        -0.21436
H         45.08588        58.10684         1.84362
H         42.96051        56.91180         2.08839
H         46.50099        43.90458        -1.01432
H         46.50344        58.69873         0.20289
H         48.58962        42.71506        -1.22566
H         48.57636        59.95083        -0.27211
H         52.32249        40.47390        -1.42722
H         50.24865        41.68917        -1.18601
H         52.33654        62.15171        -1.05692
H         50.24446        60.94769        -0.69106
H         54.02861        39.50785        -1.68143
H         54.09896        62.69185        -2.37823
H         56.15375        38.32225        -1.78730
H         56.14116        63.94293        -2.68310
H         59.95080        36.21477        -1.81433
H         57.85890        37.42107        -1.96464
H         59.70084        66.88397        -1.08291
H         57.67709        65.58505        -1.44072
H         61.58650        35.21538        -1.45853
H         61.56593        67.80745        -1.13603
H         63.56314        33.97033        -0.78301
H         63.64734        69.02309        -0.75551
H         66.96247        31.76879         1.01497
H         65.05289        32.97258         0.07798
H         67.31261        71.18828        -0.03822
H         65.20545        69.99651        -0.24518
H         68.61002        30.82002         1.51199
H         68.95907        72.12376         0.12316
H         72.78028        30.93356         2.59277
H         70.67384        29.64170         2.18403
H         72.79278        33.39083         2.34274
H         72.60332        35.32523         2.70628
H         72.56809        37.75241         2.55346
H         72.34313        39.68804         2.81157
H         72.42625        42.10919         2.47506
H         72.83377        43.90547         1.66691
H         72.93467        46.28793         1.26343
H         72.96898        48.21959         1.11036
H         72.99096        50.63629         0.88305
H         73.11125        52.43957         0.26291
H         73.21500        54.79030        -0.35540
H         73.20246        56.80033        -0.17400
H         73.05388        59.16155         0.33959
H         72.91103        60.93898         0.91287
H         72.92602        63.32391         1.31095
H         73.00929        65.27730         1.31611
H         73.07822        67.70977         1.29731
H         73.13959        69.60691         1.13609
H         73.19790        72.05430         0.87560
H         71.09948        73.31729         0.35631
