         424
 CSIRO Nanostructure Databank - Neutral Graphene Oxide Data Set
C          1.40118         4.05154         2.90041
C          0.16552         4.62390         2.58255
C          1.27462         6.66470         1.84643
C          0.09886         5.91722         2.07142
C          1.23370         8.03917         1.37136
C          0.08320         8.67105         0.94607
C          1.23386        10.81602         0.53796
C          0.07207        10.03856         0.57644
C          1.21633        12.21542         0.15528
C          0.00269        12.91378        -0.04596
C          1.18447        15.00938        -0.45321
C         -0.01428        14.26698        -0.33293
C          1.18027        16.43429        -0.69935
C         -0.02854        17.16535        -0.79379
C          1.17998        19.26511        -1.10024
C         -0.02865        18.53259        -0.98499
C          1.18320        20.69808        -1.27494
C         -0.03006        21.43222        -1.31742
C          1.16727        23.54400        -1.55482
C         -0.04129        22.80231        -1.45374
C          1.15998        24.97939        -1.63792
C         -0.05838        25.72008        -1.58243
C          1.15257        27.84156        -1.49118
C         -0.06289        27.08907        -1.50816
C          1.15237        29.24181        -1.25945
C         -0.06556        29.96123        -0.92620
C          1.13701        32.14019        -1.01979
C         -0.08168        31.29769        -0.73798
C          1.14566        33.46178        -0.28442
C         -0.02591        34.21411        -0.19236
C          1.14382        36.02105         0.93951
C         -0.03624        35.47402         0.41902
C          1.15665        37.31862         1.57019
C          3.90586         4.17248         3.08847
C          2.58586         4.76231         2.67134
C          3.76709         6.72445         1.69784
C          2.53367         6.06181         2.13213
C          3.72025         8.02993         1.25540
C          2.49544         8.85244         1.54894
C          3.68871        10.88073         0.67395
C          2.49718        10.20285         0.86345
C          3.69599        12.24850         0.21420
C          2.44147        12.92650         0.01435
C          3.65533        15.02781        -0.47542
C          2.42361        14.31912        -0.30567
C          3.65072        16.42919        -0.74606
C          2.41228        17.14231        -0.82930
C          3.65436        19.26652        -1.19797
C          2.41286        18.55888        -1.03291
C          3.65930        20.69621        -1.39625
C          2.41633        21.40420        -1.40165
C          3.63008        23.55223        -1.66919
C          2.40213        22.83168        -1.53664
C          3.60284        24.95914        -1.81307
C          2.38792        25.69166        -1.75641
C          3.60120        27.86937        -1.73138
C          2.39095        27.14242        -1.70426
C          3.62568        29.25322        -1.37859
C          2.38777        29.94968        -1.17862
C          3.60748        31.95331        -0.47696
C          2.40558        31.33604        -0.85139
C          3.60292        33.28425         0.08366
C          2.36482        33.99798         0.21671
C          3.57667        35.82761         1.35112
C          2.36118        35.28378         0.83103
C          3.56539        37.15210         1.95323
C          2.31345        37.85798         2.04949
C          6.23713         3.94405         2.18920
C          5.07920         4.66631         2.25963
C          6.18690         6.59803         1.16420
C          4.99628         5.97483         1.65136
C          6.16102         7.94694         0.68131
C          4.84859         8.66939         0.50655
C          6.16040        10.79639         0.24383
C          5.00108        10.15162         0.93648
C          6.23488        12.28493         0.33146
C          4.90203        12.94461         0.00373
C          6.11939        15.02142        -0.59401
C          4.88803        14.31612        -0.36642
C          6.10860        16.39904        -0.82788
C          4.88325        17.13657        -0.91180
C          6.11454        19.24810        -1.52190
C          4.86424        18.54055        -1.17233
C          6.14018        20.72595        -1.59902
C          4.88616        21.42280        -1.56212
C          6.12104        23.55227        -1.82769
C          4.88056        22.83949        -1.69530
C          6.14193        24.96206        -1.94771
C          4.85613        25.66722        -2.11414
C          6.16004        27.88627        -1.98647
C          4.84634        27.17714        -2.11586
C          6.13957        29.32122        -1.51213
C          4.84885        29.95065        -1.16739
C          6.08656        31.87401        -0.21624
C          4.84898        31.24200        -0.60845
C          6.06337        33.14800         0.39353
C          4.80277        33.84500         0.57695
C          5.99298        35.58442         1.97695
C          4.77057        35.10323         1.24151
C          6.00334        37.07205         2.24228
C          4.75298        37.75240         2.34642
C          8.72184         3.88900         1.90982
C          7.42056         4.41341         1.38644
C          8.63104         6.61089         1.02087
C          7.42547         5.90973         1.21493
C          8.60044         7.97509         0.58176
C          7.33676         8.59637         0.33620
C          8.57836        10.68469        -0.36318
C          7.26440         9.94857        -0.33546
C          8.52721        12.06482        -0.96356
C          7.37060        12.90070        -0.44430
C          8.53532        14.87129        -1.34958
C          7.34482        14.23175        -0.72897
C          8.56128        16.36240        -1.40419
C          7.42425        17.12829        -0.76262
C          8.70963        19.29958        -1.21546
C          7.40738        18.52753        -1.35492
C          8.63698        20.70685        -1.77083
C          7.35292        21.40170        -1.76394
C          8.57235        23.54451        -2.05030
C          7.36405        22.83866        -1.88864
C          8.60584        24.95523        -1.93732
C          7.36586        25.67737        -1.90431
C          8.60627        27.77739        -1.53074
C          7.40036        27.10774        -1.81249
C          8.59201        29.16441        -1.10625
C          7.38129        29.88418        -0.96665
C          8.55915        31.82330        -0.03924
C          7.33710        31.18192        -0.39380
C          8.53814        33.15006         0.48758
C          7.29203        33.78921         0.76448
C          8.48280        35.73598         1.68578
C          7.28708        35.06448         1.40288
C          8.46470        37.04465         2.31778
C          7.19735        37.69971         2.52014
C         11.14790         4.01287         2.15847
C          9.89617         4.60713         1.81077
C         11.07889         6.70950         1.21170
C          9.89241         5.98309         1.31510
C         11.05313         8.07364         0.73911
C          9.81424         8.68995         0.40302
C         11.04264        10.77400        -0.22398
C          9.78170        10.06876        -0.05959
C         11.05956        12.12865        -0.65101
C          9.83578        12.81660        -0.91408
C         11.05857        14.90698        -1.36691
C          9.83245        14.16431        -1.24880
C         11.04579        16.30041        -1.65967
C          9.85324        17.07800        -1.57252
C         11.07359        19.15043        -2.19116
C          9.85728        18.45640        -1.73321
C         11.07164        20.64395        -2.27164
C          9.79617        21.37114        -2.04805
C         11.10849        23.51492        -2.07576
C          9.81918        22.81305        -2.46811
C         11.09813        24.90814        -1.86917
C          9.85478        25.65015        -1.83066
C         11.08316        27.72748        -1.28782
C          9.85690        27.04907        -1.55453
C         11.06111        29.10297        -0.86988
C          9.81566        29.79400        -0.71988
C         11.01814        31.79844         0.09272
C          9.79562        31.13158        -0.22336
C         10.98708        33.15609         0.51125
C          9.76831        33.82727         0.75379
C         10.93709        35.81720         1.68549
C          9.74937        35.14996         1.33912
C         10.92171        37.06808         2.39507
C          9.65135        37.67162         2.66377
C         13.58957         4.04240         2.24935
C         12.36246         4.69214         2.00584
C         13.52825         6.79850         1.49908
C         12.35648         6.09284         1.56534
C         13.53689         8.28228         1.23330
C         12.26374         8.80228         0.60710
C         13.52848        10.79820        -0.12045
C         12.26552        10.11448         0.09288
C         13.54626        12.17763        -0.47390
C         12.29362        12.86325        -0.73629
C         13.53668        15.02988        -0.90667
C         12.28439        14.21570        -1.10731
C         13.59526        16.27904        -1.74883
C         12.30591        16.98886        -2.00169
C         13.55243        19.16009        -2.02175
C         12.36242        18.45536        -2.07639
C         13.55888        20.61958        -2.05373
C         12.35794        21.35411        -2.13733
C         13.58775        23.47440        -1.99393
C         12.33916        22.78250        -2.06259
C         13.57877        24.90614        -1.79285
C         12.33988        25.60460        -1.66278
C         13.56260        27.65851        -1.08437
C         12.33409        27.00363        -1.36564
C         13.59068        29.16715        -0.92668
C         12.26741        29.78835        -0.55496
C         13.50457        31.77601         0.32206
C         12.26382        31.11074        -0.08355
C         13.48808        33.08906         0.75823
C         12.25590        33.87573         0.67189
C         13.46199        35.79634         1.91750
C         12.23470        35.26931         1.28700
C         13.39819        37.06723         2.57756
C         12.12205        37.69040         2.76543
C         16.03278         4.01636         2.11860
C         14.83886         4.69937         2.06840
C         16.02392         6.72824         1.16564
C         14.84240         6.20974         1.95942
C         15.93553         7.99692         0.49384
C         14.76824         8.73710         0.48678
C         15.97927        10.70159        -0.40066
C         14.73929        10.06853        -0.05366
C         16.00830        12.11763        -0.57330
C         14.79036        12.84971        -0.60205
C         16.01611        14.92147        -1.12346
C         14.83324        14.26054        -0.93915
C         16.08493        16.26842        -1.80409
C         14.82865        17.07841        -1.69168
C         16.07496        19.17689        -1.86385
C         14.81883        18.44370        -1.87615
C         16.06461        20.57955        -1.93225
C         14.81081        21.31474        -1.99621
C         16.08407        23.44199        -2.15733
C         14.80023        22.72939        -2.03725
C         16.08718        24.97324        -1.88606
C         14.79383        25.60903        -1.57454
C         16.06145        27.52319        -0.55630
C         14.77805        26.94786        -1.14049
C         16.00246        29.02944        -0.48507
C         14.70564        29.59277         0.05175
C         15.97626        31.73211         0.54039
C         14.76056        31.07774         0.26504
C         15.97781        33.04799         1.12149
C         14.65099        33.60587         1.55521
C         15.86502        35.65207         2.33645
C         14.66113        35.08415         1.84533
C         15.82525        36.94809         2.95328
C         14.58499        37.62374         3.08347
C         18.53697         4.38352         2.49408
C         17.32482         4.60255         1.62645
C         18.46139         6.68250         0.78856
C         17.21997         6.05403         1.22351
C         18.42896         7.84058         0.03060
C         17.10817         8.45633        -0.34718
C         18.41915        10.61271        -0.63499
C         17.17936         9.96315        -0.43848
C         18.43708        12.04253        -0.82314
C         17.26497        12.77347        -0.76800
C         18.55725        14.91834        -1.21217
C         17.30246        14.27842        -0.67667
C         18.55868        16.33708        -1.43626
C         17.34011        17.05339        -1.55507
C         18.56706        19.16580        -1.80819
C         17.31732        18.45298        -1.72360
C         18.55331        20.57627        -1.97184
C         17.32633        21.29144        -1.91839
C         18.54929        23.45200        -1.68431
C         17.32563        22.71171        -1.94084
C         18.56852        24.92305        -1.65446
C         17.35203        25.62489        -1.54255
C         18.52717        27.72463        -1.09693
C         17.35694        27.01138        -1.14890
C         18.60409        29.20814        -0.78602
C         17.26275        29.82330        -0.43169
C         18.42855        31.63022         0.81969
C         17.24237        31.09981         0.30828
C         18.41368        32.93581         1.44053
C         17.15630        33.64943         1.53805
C         18.28562        35.52085         2.70400
C         17.11863        34.95448         2.20234
C         18.23017        36.76593         3.43083
C         17.01533        37.47386         3.51078
C         19.68012         5.07042         2.21691
C         20.91977         6.74515         0.81378
C         19.70619         6.12920         1.24509
C         20.92631         7.78449        -0.07274
C         19.67105         8.39500        -0.61782
C         20.83985        10.67746        -0.26841
C         19.66075         9.90792        -0.53532
C         20.88320        12.02530        -0.49678
C         19.74434        12.67306        -1.24394
C         20.95534        14.87552        -1.54655
C         19.73742        14.18958        -1.27736
C         20.99761        16.24758        -1.64780
C         19.80359        17.02911        -1.59912
C         21.03985        19.18877        -1.84680
C         19.79954        18.44343        -1.76527
C         21.06595        20.51155        -2.11204
C         19.81588        21.28410        -2.43460
C         21.00634        23.57382        -2.32451
C         19.90993        22.71612        -1.93547
C         20.98247        24.92888        -2.04281
C         19.80848        25.59932        -1.62893
C         20.87416        27.49753        -0.39340
C         19.86091        27.10237        -1.45733
C         20.79489        28.65836         0.31429
C         19.69567        29.57339         0.19517
C         20.80816        31.42331         1.41821
C         19.65637        30.84438         0.79911
C         20.78449        32.70281         1.92811
C         19.59646        33.48151         1.95574
C         20.63699        35.22987         3.49552
C         19.64529        34.92902         2.40115
C         20.52491        36.38597         4.22684
C         19.38216        37.21265         4.13293
O          4.75561        26.43696        -3.37680
O          6.27315        28.98727        -2.94708
O         12.37502        35.08334        -0.17312
O         16.42452        29.77812        -1.65470
O          8.22166        15.59118        -2.59141
O         19.38274        22.88086        -0.60630
O          6.82521        18.59231        -2.67200
O         16.11377        24.41684        -3.25115
O         13.02754        16.23416        -3.08967
O         10.94822        19.84038        -3.51743
O          3.80507         2.75245         3.09660
H          4.61523         2.37833         3.49554
O          9.80620        22.81520        -3.94042
H         10.28836        22.01564        -4.24667
O          8.22812        11.88244        -2.41062
H          9.06782        11.64432        -2.85920
O         20.14458        35.66396         1.21648
H         20.15644        36.61547         1.45592
O         19.73135        21.38844        -3.89289
H         19.66911        20.47951        -4.25528
O          4.47668         8.64939        -0.89773
H          5.25905         8.97375        -1.41947
O         15.06558         6.69497         3.32578
H         14.31292         6.38647         3.87240
O         13.43849        15.54419         0.47297
H         13.37670        14.77077         1.07302
O          7.75851        17.20947         0.66651
H          6.96462        17.52715         1.14708
O          6.48016        12.61491         1.77373
H          6.39769        13.58940         1.86095
O         14.40964        28.99569         1.34899
H         13.68216        29.50969         1.76054
O         20.34177        27.65173        -2.71831
H         20.11769        28.61809        -2.70503
O         19.58839         8.05968        -2.08069
H         19.85076         7.11814        -2.17471
O         14.43125        32.99877         2.90611
H         15.18691        33.27739         3.46845
O          5.89357        34.96140         3.31631
H          6.64239        35.30618         3.84855
O         19.00477        29.87420        -2.03746
H         18.17944        29.96069        -2.57085
O         19.94309        12.28806        -2.65304
H         19.93116        11.30700        -2.69052
O         16.11438        27.01690         0.81326
H         15.38886        27.45307         1.32153
O          7.24968         3.83888         0.02879
H          6.40967         4.19502        -0.33211
O         17.60287         3.87597         0.36798
H         16.84813         4.04102        -0.23659
O          2.54415         9.14312         2.99670
H          1.74600         9.67073         3.21163
O          1.06884        32.48960        -2.44922
H          1.11863        31.65175        -2.95696
O          6.88560         9.65801        -1.75280
H          7.13701        10.46637        -2.27642
O          8.98511        19.51309         0.20604
H          8.88726        18.63915         0.66002
O          5.28499        10.14283         2.36497
H          5.63923        11.03606         2.58934
O         17.36204        14.55945         0.77657
H         16.56980        14.15075         1.18635
O         16.84521         7.98580        -1.71896
H         17.70092         8.08886        -2.20988
O         13.93018        29.71470        -2.22690
H         13.23125        29.45097        -2.86058
O         13.60035         8.94695         2.54813
H         12.81598         8.65708         3.05980
O         16.15337        15.92380        -3.24558
H         15.23316        15.79026        -3.56657
H          1.45469         3.03593         3.31473
H         -0.76033         4.05736         2.75475
H         -0.88389         6.35962         1.85730
H         -0.86511         8.11731         0.88855
H         -0.89100        10.47455         0.27918
H         -0.95657        12.38754         0.04829
H         -0.98644        14.76049        -0.46165
H         -0.99405        16.65033        -0.70645
H         -0.99587        19.04746        -1.04614
H         -0.99242        20.91094        -1.23662
H         -1.01063        23.31601        -1.47948
H         -1.02144        25.19377        -1.56722
H         -1.02783        27.60800        -1.44167
H         -0.99550        29.39474        -0.77863
H         -1.02615        31.79444        -0.47283
H         -0.96149        33.82604        -0.61821
H         -0.97459        36.04350         0.48318
H          0.20945        37.87224         1.64888
H          4.10159         4.52392         4.15426
H          2.31103        38.85403         2.51625
H          6.29446         2.94246         2.64391
H          4.74529        38.79622         2.69634
H          8.75172         2.85235         2.27910
H          7.19930        38.74976         2.85111
H         11.15818         2.96898         2.50665
H          9.62350        38.65840         3.14951
H         13.58354         2.96884         2.49322
H         12.08285        38.66516         3.27409
H         16.01534         2.92538         2.27482
H         14.55152        38.58637         3.61474
H         18.51698         3.60893         3.27410
H         16.98237        38.43149         4.05115
H         20.61094         4.83858         2.75763
H         21.87458         6.33495         1.17644
H         21.88599         8.15824        -0.45779
H         21.73630        10.17101         0.11670
H         21.81559        12.58076        -0.32073
H         21.88576        14.29838        -1.64373
H         21.96771        16.73599        -1.81116
H         21.98799        18.66508        -1.66093
H         22.02708        21.04425        -2.16476
H         21.82783        23.15113        -2.92038
H         21.86872        25.53801        -2.27255
H         21.74508        26.83945        -0.24986
H         21.59926        28.89440         1.02810
H         21.75723        30.87008         1.41486
H         21.72020        33.13033         2.31341
H         21.54495        34.61875         3.59185
H         21.32877        36.67073         4.92201
H         19.33239        38.14737         4.70849
