         630
 CSIRO Nanostructure Databank - Neutral Graphene Oxide Data Set
C         22.83756        27.42633        -0.44336
C         22.86830        28.76254        -0.71415
C         23.00190        31.76265        -1.06014
C         23.06606        33.13821        -1.27059
C         23.11816        36.05897        -1.21006
C         23.09762        37.41220        -0.94476
C         23.01711        40.23020        -0.23941
C         23.00840        41.60244        -0.01713
C         22.99938        44.51129         0.15790
C         22.99952        45.89057         0.17624
C         25.34490        24.61408        -0.10463
C         24.10430        25.29751        -0.10284
C         25.30305        27.40643        -0.45340
C         24.04413        26.67802        -0.18433
C         25.34295        28.84509        -0.06903
C         24.04856        29.58198        -0.34577
C         25.38207        31.69515        -0.54317
C         24.12591        31.03089        -0.65580
C         25.44500        33.09814        -0.81452
C         24.28129        33.84576        -1.11747
C         25.50075        36.02185        -0.75729
C         24.31258        35.31061        -1.08544
C         25.48432        37.38717        -0.39052
C         24.25030        38.09750        -0.47402
C         25.36606        40.13247         0.56515
C         24.19293        39.48121        -0.12284
C         25.43906        41.62404         0.29459
C         24.21975        42.32819         0.15924
C         25.45085        44.46712         0.09563
C         24.21315        43.77356         0.13235
C         25.45473        45.90292         0.07276
C         24.21737        46.61195         0.14619
C         25.41158        48.72441         0.24045
C         24.22555        48.03499         0.21170
C         27.87007        23.19064         0.20129
C         27.82922        24.56059        -0.14404
C         26.57352        25.23184        -0.35717
C         27.88078        27.43189        -0.98752
C         26.57296        26.66007        -0.75370
C         27.94024        28.83729        -0.35736
C         26.69100        29.52754         0.24381
C         27.64558        31.83837         0.30392
C         26.56260        31.02676        -0.05924
C         27.89360        33.12088        -0.20865
C         26.74681        33.78089        -0.82141
C         27.99398        35.96588        -0.29068
C         26.78385        35.31984        -0.81325
C         27.94744        37.29949         0.08732
C         26.71281        38.07276         0.03625
C         27.88778        40.17487         0.94387
C         26.68553        39.41353         0.38576
C         27.92349        41.62341         0.47975
C         26.67935        42.31855         0.30222
C         27.92388        44.44304         0.02427
C         26.68444        43.74357         0.13379
C         27.93021        45.89809        -0.10410
C         26.67549        46.62177         0.01168
C         27.89981        48.75833         0.21245
C         26.66450        48.04492         0.13385
C         27.99025        50.06413         0.72492
C         30.31483        23.18785         0.28806
C         29.06240        22.52205         0.39678
C         30.33172        24.56547        -0.02786
C         29.08337        25.27568        -0.27733
C         30.41172        27.26793        -1.01701
C         29.11199        26.62182        -0.63288
C         30.41014        28.75597        -0.78569
C         29.19014        29.42618        -0.35295
C         30.43839        31.58935        -0.35952
C         29.45917        30.77231         0.14046
C         30.41271        33.03238        -0.21860
C         29.18021        33.76706        -0.17747
C         30.46427        35.86934        -0.10314
C         29.21678        35.19589        -0.22090
C         30.48619        37.29502         0.11520
C         29.21439        37.94222         0.48289
C         30.46315        40.14934         0.47386
C         29.22026        39.42799         0.77725
C         30.43037        41.61962         0.62835
C         29.12801        42.32672         0.43225
C         30.40602        44.40155        -0.17858
C         29.13013        43.72201         0.12647
C         30.38373        45.89069        -0.45063
C         29.11362        46.59907        -0.26696
C         30.42169        48.71810         0.13980
C         29.13347        48.10857        -0.35276
C         30.44512        49.99900         0.70610
C         29.21447        50.68110         0.94866
C         32.75713        20.36118         0.83368
C         31.57707        21.05849         0.65951
C         32.79694        23.16677         0.50358
C         31.55760        22.46565         0.48902
C         32.81611        24.59853         0.26414
C         31.59287        25.26677        -0.07093
C         32.84751        27.34869        -0.49041
C         31.63684        26.62530        -0.43818
C         32.86400        28.75196        -0.84294
C         31.59303        29.45215        -0.91033
C         32.86497        31.65127        -0.87844
C         31.55366        30.95242        -1.14190
C         32.89377        32.99095        -0.56065
C         31.64697        33.73351        -0.31731
C         32.96768        35.82666         0.16543
C         31.67224        35.13247        -0.16915
C         32.93839        37.32879        -0.03395
C         31.68394        38.02330         0.14117
C         32.91671        40.20487         0.08614
C         31.66772        39.47521         0.26148
C         32.95644        41.62667         0.15160
C         31.73278        42.36691         0.55249
C         32.92172        44.51223        -0.19713
C         31.70053        43.89261         0.44117
C         32.90523        45.91573        -0.40465
C         31.65334        46.63614        -0.33102
C         32.89696        48.73023        -0.01648
C         31.64322        48.01036        -0.08729
C         32.93157        49.98698         0.53248
C         31.72589        50.59973         1.04936
C         33.11592        52.25666         2.20650
C         31.84600        51.72787         1.85449
C         35.30443        19.02441         1.61139
C         35.24683        20.31466         1.07454
C         34.00747        21.03106         0.84293
C         35.27085        23.17800         0.78828
C         34.00217        22.44040         0.66935
C         35.28898        24.68014         0.60649
C         34.02432        25.32951         0.23666
C         35.31603        27.38855        -0.30942
C         34.06830        26.68798        -0.17401
C         35.32044        28.75779        -0.68811
C         34.07904        29.43864        -0.90973
C         35.37190        31.60580        -1.02304
C         34.08807        30.89269        -1.33647
C         35.36631        33.01687        -0.87838
C         34.14531        33.73241        -0.61466
C         35.36385        35.85916        -0.59914
C         34.17443        35.12814        -0.41404
C         35.36971        37.30740        -0.44689
C         34.12526        38.02857        -0.17082
C         35.34084        40.19773        -0.30266
C         34.13094        39.48672        -0.15080
C         35.36309        41.61700        -0.31373
C         34.14439        42.34091        -0.11852
C         35.33339        44.51613        -0.51506
C         34.13613        43.80349        -0.25708
C         35.33589        45.92831        -0.70667
C         34.11151        46.62205        -0.62493
C         35.40239        48.75060        -0.34575
C         34.08115        48.12896        -0.74239
C         35.43861        50.00171         0.26628
C         34.18908        50.81776         0.48833
C         35.58740        52.35961         1.96873
C         34.29245        51.80137         1.63981
C         35.73510        53.44769         2.85505
C         37.77274        18.96831         1.51554
C         36.51932        18.35652         1.78265
C         37.79710        20.31205         1.04996
C         36.52024        20.94585         0.70320
C         37.80462        23.19117         0.59113
C         36.53542        22.46021         0.50101
C         37.78276        24.61165         0.39524
C         36.56598        25.32934         0.26799
C         37.79631        27.37297        -0.33572
C         36.55967        26.69296        -0.11615
C         37.78280        28.74067        -0.74110
C         36.57853        29.43704        -0.88197
C         37.81162        31.59718        -1.13933
C         36.58600        30.88989        -1.06519
C         37.83003        33.01339        -1.06080
C         36.60291        33.72307        -0.90238
C         37.80180        35.85664        -1.03089
C         36.59429        35.15470        -0.84585
C         37.73256        37.31994        -1.15189
C         36.53557        38.01312        -0.65030
C         37.84237        40.20054        -0.79399
C         36.65032        39.45306        -0.23600
C         37.80651        41.63587        -0.75195
C         36.60168        42.31968        -0.50454
C         37.77283        44.47886        -1.01207
C         36.64076        43.81142        -0.29202
C         37.70053        45.85530        -1.36670
C         36.56981        46.65657        -1.03838
C         37.77314        48.91951        -0.81572
C         36.60182        48.09830        -0.80564
C         37.85243        50.10981        -0.03611
C         36.68158        50.63531         0.56160
C         38.03716        52.42756         1.59100
C         36.76673        51.82007         1.36507
C         38.14415        53.55623         2.45403
C         36.97621        54.02383         3.09382
C         40.24468        16.21832         2.18465
C         39.05615        16.88902         2.04112
C         40.24853        18.97431         1.51253
C         39.02352        18.27413         1.70220
C         40.24764        20.36877         1.17987
C         39.00821        21.04066         0.94421
C         40.25521        23.17837         0.62761
C         39.00769        22.46866         0.69200
C         40.24755        24.58500         0.39926
C         39.02431        25.30640         0.23750
C         40.28133        27.40301        -0.13623
C         39.03279        26.68660        -0.10574
C         40.30318        28.79654        -0.49952
C         39.08649        29.32636        -1.24333
C         40.36186        31.61476        -1.23937
C         39.07365        30.85350        -1.35957
C         40.32483        33.08783        -1.08855
C         39.07261        33.75076        -1.07782
C         40.28947        35.88615        -1.22028
C         39.05408        35.17543        -1.11027
C         40.27565        37.33114        -1.51055
C         38.98763        38.08853        -1.40123
C         40.28002        40.24187        -1.17696
C         39.02168        39.53862        -1.09681
C         40.26294        41.66731        -1.14960
C         39.02077        42.36119        -1.02165
C         40.19432        44.48733        -1.58016
C         38.96714        43.77210        -1.18518
C         40.18030        45.95501        -1.66059
C         38.91901        46.43664        -1.89854
C         40.23328        48.99274        -1.25855
C         38.96496        48.57258        -1.54398
C         40.26460        50.40564        -0.76298
C         39.09894        50.79705         0.10019
C         40.47772        52.62112         1.04088
C         39.20564        51.92278         0.91515
C         40.54613        53.77922         1.84097
C         39.42850        54.22363         2.60771
C         40.84836        55.90155         3.72809
C         39.60218        55.28889         3.52126
C         42.71273        16.21598         2.19557
C         41.48855        16.89761         2.01755
C         42.73653        18.97284         1.54377
C         41.49312        18.28475         1.68469
C         42.72581        20.38940         1.22529
C         41.48742        21.07360         1.05990
C         42.72768        23.17574         0.59161
C         41.49041        22.47607         0.75859
C         42.69950        24.57779         0.39479
C         41.48420        25.29224         0.33079
C         42.71381        27.45175         0.33491
C         41.48343        26.72012         0.15558
C         42.63520        28.92980         0.32323
C         41.46824        29.54690        -0.34969
C         42.76826        31.64856        -0.67485
C         41.57806        30.92217        -0.75020
C         42.82071        33.03135        -1.29152
C         41.53191        33.79603        -1.09147
C         42.79414        35.95359        -1.10498
C         41.53031        35.21695        -1.15891
C         42.80750        37.35928        -1.10905
C         41.56821        38.09391        -1.42110
C         42.73940        40.25212        -1.06264
C         41.51877        39.55473        -1.20812
C         42.70799        41.67283        -1.11831
C         41.50623        42.36346        -1.23111
C         42.74651        44.63580        -1.50640
C         41.51082        43.80401        -1.56063
C         42.75150        46.00923        -1.58049
C         41.44155        46.76926        -1.33626
C         42.77405        48.91607        -1.39710
C         41.45954        48.25370        -1.82077
C         42.73971        50.25121        -0.84933
C         41.60331        50.87229        -0.30451
C         42.92547        52.80019         0.54612
C         41.65571        52.10520         0.40269
C         43.01348        54.00366         1.29385
C         41.75297        54.67936         1.75403
C         43.23912        56.15439         3.13889
C         41.95702        55.56385         2.95471
C         43.91546        16.89636         2.07166
C         45.25294        19.02920         1.78558
C         43.94704        18.26272         1.74086
C         45.19133        20.29551         0.95639
C         43.94388        21.08033         0.98734
C         45.24395        23.12986         0.49948
C         43.97772        22.45207         0.65173
C         45.25646        24.58406         0.22811
C         43.95117        25.32665         0.19055
C         45.19104        27.46644         0.71466
C         43.91933        26.78257         0.44704
C         45.21227        28.99893         0.64250
C         43.92732        29.72587         0.39891
C         45.22324        31.70288        -0.39908
C         43.98647        31.05262        -0.24165
C         45.25295        33.12463        -0.68621
C         44.05601        33.81593        -0.90566
C         45.24438        35.97283        -0.73883
C         44.03009        35.24264        -0.92858
C         45.23762        37.40366        -0.74402
C         44.01060        38.10247        -0.92225
C         45.21007        40.24697        -0.77335
C         43.99694        39.54113        -0.92865
C         45.22481        41.72712        -0.73033
C         43.94925        42.45922        -0.96209
C         45.30655        44.59243        -1.47963
C         43.99862        43.85328        -1.51732
C         45.24202        46.07566        -1.48866
C         44.02337        46.75697        -1.59856
C         45.29981        48.96122        -1.26538
C         43.98667        48.22165        -1.54616
C         45.17243        50.46935        -1.41377
C         43.90063        51.16338        -1.07515
C         45.29794        53.01518        -0.06760
C         44.06367        52.30802        -0.11234
C         45.40816        54.16344         0.77223
C         44.24839        54.65349         1.46973
C         44.32335        55.76685         2.38553
C         47.68139        18.89522         1.22945
C         46.50896        18.25258         1.48181
C         47.76042        20.32410         1.05979
C         46.50444        21.01513         0.72822
C         47.72945        23.19283         0.67330
C         46.47184        22.47834         0.62962
C         47.74025        24.60621         0.61053
C         46.49907        25.34410         0.50146
C         47.72283        27.49868         0.89545
C         46.46290        26.71241         0.61629
C         47.68626        28.84055         0.16842
C         46.46075        29.66806         0.22320
C         47.74321        31.65060        -0.68861
C         46.45949        30.97939        -0.21148
C         47.72613        33.14858        -0.47784
C         46.50196        33.84282        -0.57576
C         47.69825        35.99913        -0.41804
C         46.48102        35.27400        -0.57566
C         47.68556        37.43205        -0.40349
C         46.45911        38.13342        -0.58786
C         47.66722        40.30531        -0.44608
C         46.44099        39.56305        -0.62165
C         47.70551        41.73133        -0.54774
C         46.50895        42.46529        -0.84852
C         47.75559        44.59415        -0.80879
C         46.51472        43.84235        -1.03514
C         47.77828        46.07949        -1.05850
C         46.55612        46.77574        -1.61439
C         47.95618        48.91095        -1.52693
C         46.60239        48.27012        -1.76077
C         48.13866        50.26367        -1.75857
C         46.21142        51.33988        -1.60914
C         47.72446        53.09082        -0.61001
C         46.42824        52.54369        -0.83010
C         47.77238        54.26974         0.19574
C         46.67134        54.80466         0.83030
C         50.22999        20.39803         1.23720
C         48.96910        21.05012         1.03904
C         50.20963        23.18267         0.78227
C         48.96459        22.47623         0.82408
C         50.21909        24.60427         0.64342
C         48.97960        25.32506         0.62075
C         50.20696        27.45198         0.51504
C         48.98214        26.73198         0.58127
C         50.21406        28.85278         0.43624
C         49.01268        29.55607        -0.00028
C         50.19652        31.71655        -0.00737
C         48.99161        31.00787        -0.14195
C         50.19228        33.16807        -0.14755
C         48.94377        33.85954        -0.31452
C         50.15122        36.02032        -0.13511
C         48.92939        35.29234        -0.28072
C         50.13965        37.44667        -0.02896
C         48.89130        38.16591        -0.17162
C         50.05465        40.33688         0.22564
C         48.85696        39.57982        -0.16720
C         50.15835        41.75927        -0.09040
C         48.95664        42.45324        -0.46317
C         50.34328        44.45319        -0.94116
C         48.99830        43.83853        -0.64744
C         50.35991        45.98367        -1.02069
C         49.09841        46.76053        -1.13310
C         50.45328        48.85611        -1.16421
C         49.14214        48.13616        -1.23540
C         50.47665        50.39564        -1.12981
C         49.19102        51.08461        -1.25165
C         50.24547        53.13268        -0.57736
C         49.02751        52.43997        -0.90611
C         51.41616        21.07915         1.14582
C         52.69609        23.18971         0.75113
C         51.45365        22.48357         0.89547
C         52.69534        24.60333         0.56422
C         51.45234        25.31518         0.57472
C         52.67353        27.44529         0.30699
C         51.45820        26.73343         0.50223
C         52.70280        28.87307         0.31008
C         51.45789        29.61281         0.78312
C         52.63991        31.78348         0.39626
C         51.39890        31.04568         0.32462
C         52.65277        33.21452         0.10276
C         51.39583        33.89251        -0.04812
C         52.62358        36.03197         0.01862
C         51.39071        35.32487        -0.07194
C         52.61116        37.44970         0.12857
C         51.36249        38.12685         0.15841
C         52.61604        40.31985         0.42157
C         51.35706        39.56455         0.43622
C         52.57887        41.70591         0.47576
C         51.38322        42.44584         0.13479
C         52.68552        44.56341         0.13804
C         51.46796        43.84358        -0.12007
C         52.73952        45.98692         0.01115
C         51.60298        46.72507        -0.57873
C         52.68053        48.90731        -0.03460
C         51.58563        48.19804        -0.48494
C         52.73392        50.35146        -0.09218
C         51.60318        51.09055        -0.50563
C         51.45394        52.49734        -0.37179
C         55.13281        23.20081         0.55267
C         53.95595        22.52144         0.76494
C         55.15328        24.60543         0.30902
C         53.91623        25.31152         0.34180
C         55.08596        27.42949        -0.21142
C         53.89939        26.73253         0.14372
C         55.08093        28.85756        -0.39289
C         53.88480        29.54671         0.00653
C         55.12936        31.72676        -0.31079
C         53.97028        30.99784         0.19529
C         55.12119        33.15096        -0.12760
C         53.87381        33.88219         0.06110
C         55.08094        36.03974         0.10420
C         53.87507        35.32830         0.04111
C         55.08789        37.45873         0.19837
C         53.85015        38.17379         0.24958
C         55.09353        40.29908         0.47056
C         53.85848        39.58789         0.40119
C         55.09958        41.70972         0.65129
C         53.80555        42.43028         0.95266
C         55.05009        44.58278         0.82788
C         53.84703        43.88489         0.58786
C         55.02516        46.00300         0.83935
C         53.86374        46.70260         0.44623
C         55.11233        48.90503         0.72717
C         53.77192        48.19002         0.73993
C         55.10161        50.31905         0.56179
C         53.95583        51.01234         0.25148
C         57.61939        24.63729        -0.10655
C         56.36016        25.30795        -0.02127
C         57.44404        27.36911        -0.87090
C         56.30492        26.69714        -0.34006
C         57.34822        28.73907        -1.29775
C         56.21446        29.56552        -0.90216
C         57.34869        31.87350        -1.28633
C         56.22449        31.03651        -0.89301
C         57.45283        33.23479        -0.82393
C         56.31612        33.87173        -0.26088
C         57.57712        36.06630        -0.16549
C         56.37503        35.28006         0.27790
C         57.57359        37.47472         0.01315
C         56.33008        38.17667         0.22838
C         57.56763        40.31672         0.36224
C         56.33112        39.58703         0.34758
C         57.56047        41.72860         0.57844
C         56.30765        42.42045         0.72981
C         57.51882        44.53224         1.08061
C         56.30345        43.84952         0.94886
C         57.52161        45.96648         1.41987
C         56.20579        46.74957         1.30140
C         57.54507        48.84631         1.26156
C         56.27617        48.21065         1.08396
C         58.72176        25.27272        -0.61472
C         59.71703        27.18418        -1.80605
C         58.64441        26.62164        -1.08259
C         59.54729        28.42235        -2.41023
C         58.37842        29.15831        -2.17066
C         59.52526        32.19859        -2.41434
C         58.37612        31.45658        -2.17210
C         59.68551        33.44828        -1.80453
C         58.65101        33.99968        -1.04746
C         59.92140        36.15266        -0.76498
C         58.72390        35.40434        -0.62713
C         59.96167        37.50096        -0.46623
C         58.78758        38.20593        -0.10779
C         59.99906        40.37545         0.17769
C         58.79638        39.63214         0.14400
C         59.99552        41.73584         0.42681
C         58.78820        42.44588         0.63086
C         59.96592        44.62805         0.94646
C         58.77818        43.87230         0.89404
C         59.96585        46.01826         1.11855
C         58.77637        46.72434         1.31485
C         58.72694        48.14439         1.37945
O         46.61933        47.42463        -2.93932
O         24.44374        29.17639         1.03529
O         28.62333        31.28340         1.14031
O         48.31385        28.83809        -1.14306
O         47.19851        50.94932        -2.50707
O         25.66058        27.05021        -1.85033
O         40.80115        43.97618        -2.85851
O         50.82253        49.62670        -2.34164
O         36.46715        21.56534        -0.64388
O         27.01808        34.55310        -2.03564
O         35.31995        24.05698         1.95387
O         44.64988        24.95548        -1.06969
O         38.78027        47.64556        -2.57207
O         50.51731        39.95982         1.57627
O         47.52735        45.62539         0.32177
O         29.32767        38.44802         1.88056
O         44.77678        43.98444        -2.74300
O         43.01993        29.64642         1.54460
O         58.20956        30.30653        -2.94946
O         41.01068        37.68487        -2.73234
O         45.20921        28.32914         1.93975
O         38.09455        37.79696        -2.53639
O         30.45358        44.88603        -1.54736
O         51.37086        46.37703        -2.01611
O         31.18944        41.97043         1.86620
O         56.71340        46.30952         2.60008
O         39.82586        31.24608        -2.56894
O         45.79285        20.27340        -0.35806
O         44.45437        42.31791         0.41269
O         53.52265        31.42605         1.53113
O         41.42935        48.29904        -3.25713
H         40.54867        47.96187        -3.54190
O         25.04488        40.01731         2.00446
H         25.88081        40.25391         2.48569
O         31.28334        31.12817        -2.56801
H         32.09842        30.82799        -3.04101
O         42.93286        32.80513        -2.73757
H         42.86931        33.67637        -3.18345
O         29.10489        48.40685        -1.80828
H         28.31230        47.96332        -2.17970
O         43.51988        51.84778        -2.34999
H         42.70219        52.36158        -2.16819
O         47.78647        27.77910         2.32420
H         46.87960        28.06556         2.60217
O         56.54474        35.12988         1.73908
H         55.78778        34.59830         2.06728
O         36.93762        43.99645         1.15525
H         36.23477        43.52782         1.65498
O         27.97837        27.67513        -2.43107
H         27.05489        27.63055        -2.78413
O         30.55701        27.06068        -2.46845
H         29.69809        27.34127        -2.87272
O         40.08240        51.21298        -2.00951
H         40.71139        50.85411        -2.67493
O         53.68811        42.42346         2.43099
H         53.50804        41.49875         2.70606
O         51.54362        29.64906         2.25560
H         52.32981        30.21045         2.46491
O         39.20932        28.78358        -2.59110
H         39.68059        29.46943        -3.12342
O         33.88761        48.45423        -2.15499
H         33.89728        49.43306        -2.23164
O         34.00889        30.85875        -2.82137
H         34.28051        31.74290        -3.14992
O         31.70030        44.43665         1.79484
H         31.41333        43.70276         2.39234
O         41.37911        46.89939         0.12394
H         41.40274        46.00275         0.52022
O         27.67077        40.29020         2.39083
H         28.10111        39.49505         2.79140
O         34.07241        51.64445        -0.73058
H         33.30861        52.24584        -0.59711
O         50.63896        43.97460        -2.30621
H         51.23195        44.65431        -2.71026
O         45.37443        19.51026         3.17032
H         45.34672        18.72928         3.76234
O         26.88233        29.36911         1.67238
H         26.01930        29.58018         2.09749
O         53.32429        48.25497         2.14140
H         54.01221        47.82308         2.69292
O         45.48441        48.83752         0.19931
H         44.64603        49.10308         0.63519
O         36.96631        39.37913         1.21890
H         36.17635        39.00987         1.67032
O         41.41927        55.62625         0.65069
H         40.61445        56.11350         0.93057
O         47.78015        31.43524        -2.14310
H         47.90617        30.46418        -2.27065
O         33.11455        35.65746         1.62777
H         32.32833        36.06747         2.04858
H         21.89970        26.86380        -0.56653
H         21.95473        29.26747        -1.05766
H         22.03148        31.25935        -1.16871
H         22.14196        33.66586        -1.53823
H         22.18387        35.56966        -1.51398
H         22.14754        37.94946        -1.05684
H         22.07854        39.75501        -0.55507
H         22.05572        42.13687        -0.11908
H         22.03605        43.98708         0.19881
H         22.05016        46.44270         0.22622
H         25.31798        23.53968         0.12095
H         23.17815        24.71539         0.00906
H         25.39622        49.82071         0.30452
H         23.26771        48.57234         0.26190
H         26.93696        22.62175         0.30294
H         27.07629        50.59409         1.02909
H         29.02369        21.45696         0.65739
H         29.22836        51.69428         1.37246
H         32.72224        19.26912         0.94697
H         30.63895        20.48892         0.63941
H         33.13847        53.05179         2.96525
H         30.95411        52.18655         2.30251
H         34.37745        18.50830         1.89808
H         34.85562        53.87659         3.35408
H         36.48807        17.33351         2.17918
H         37.02599        54.88505         3.77349
H         40.25200        15.14801         2.43576
H         38.11659        16.33716         2.17515
H         40.95242        56.64953         4.52825
H         38.76133        55.61078         4.14950
H         42.70520        15.14733         2.45255
H         43.35773        56.93068         3.90992
H         44.85385        16.35062         2.24276
H         45.28875        56.26355         2.55159
H         48.60001        18.29661         1.14047
H         46.51346        17.15765         1.58085
H         48.72805        54.78215         0.35722
H         46.80024        55.72198         1.42003
H         50.25172        19.31957         1.44254
H         50.23483        54.22254        -0.45123
H         52.35284        20.52256         1.28173
H         52.31099        53.10641        -0.05178
H         56.07260        22.63279         0.55568
H         54.00028        21.43627         0.92688
H         56.03226        50.88654         0.69779
H         54.00969        52.10632         0.16948
H         57.70446        23.58784         0.20450
H         57.59908        49.94320         1.24404
H         59.67415        24.73313        -0.71889
H         60.63555        26.60214        -1.96399
H         60.30932        28.83351        -3.08479
H         60.28175        31.81437        -3.11004
H         60.60028        34.01809        -2.00974
H         60.85092        35.65895        -1.07742
H         60.91951        38.03059        -0.55452
H         60.96309        39.87293         0.02390
H         60.95832        42.26231         0.46123
H         60.93456        44.13216         0.80148
H         60.91779        46.56702         1.07648
H         59.67583        48.69782         1.43628
