         420
 CSIRO Nanostructure Databank - Neutral Graphene Oxide Data Set
C         27.85327        27.24136        -0.42890
C         27.71960        28.66411        -0.12406
C         26.57929        29.45898        -0.59375
C         27.81863        31.58312        -0.33182
C         26.61357        30.81647        -0.60930
C         27.79973        33.03140        -0.30859
C         26.63720        33.78422        -0.45718
C         27.84691        35.93420        -0.28745
C         26.64722        35.18455        -0.40362
C         27.85464        37.37770        -0.32175
C         26.65501        38.12637        -0.39081
C         27.88777        40.23085        -0.33229
C         26.67040        39.50653        -0.39605
C         27.89577        41.68328        -0.30389
C         26.71332        42.43978        -0.42215
C         27.93210        44.51638        -0.07690
C         26.73568        43.82929        -0.34384
C         27.94094        45.95813         0.05480
C         30.30227        27.31125        -0.13469
C         29.04785        26.60220        -0.28814
C         30.30931        28.69888        -0.11740
C         29.06778        29.45290         0.06011
C         30.30521        31.63329        -0.06684
C         29.02567        30.90129        -0.16470
C         30.28581        33.07245        -0.53554
C         29.07306        33.75541         0.08953
C         30.31361        35.92263        -0.14763
C         29.07896        35.24153        -0.17107
C         30.32809        37.34707        -0.21305
C         29.09984        38.07536        -0.26971
C         30.36480        40.21573        -0.26545
C         29.10609        39.50868        -0.27052
C         30.36808        41.65560        -0.15228
C         29.13797        42.37054        -0.12743
C         30.37005        44.46317         0.39203
C         29.14625        43.78840         0.05549
C         30.29714        45.89743         0.77358
C         29.05247        46.62082         0.44525
C         32.76151        24.45639         0.17686
C         31.60431        25.17209         0.07740
C         32.79024        27.29217        -0.25541
C         31.57507        26.58526        -0.17943
C         32.83178        28.71542        -0.29732
C         31.54297        29.44124        -0.56765
C         32.84664        31.61881        -0.45156
C         31.59170        30.88633        -0.13323
C         32.83212        33.05758        -0.43788
C         31.58600        33.80282        -0.28334
C         32.85030        35.89961         0.20589
C         31.56716        35.16609        -0.10643
C         32.79376        37.37157        -0.14450
C         31.58686        38.06723        -0.25434
C         32.81746        40.27490        -0.70104
C         31.57009        39.50597        -0.34260
C         32.83163        41.70082        -0.19835
C         31.59892        42.37262        -0.01228
C         32.87432        44.44506         0.59291
C         31.57845        43.76791         0.34661
C         32.90350        45.93516         0.86556
C         31.59891        46.66919         1.00057
C         32.81217        48.78229         0.61338
C         31.64813        48.13215         0.83100
C         35.34842        23.01661         0.55266
C         35.33022        24.40256         0.19183
C         34.05784        25.04186        -0.17196
C         35.32500        27.30679        -0.14474
C         34.06834        26.57547        -0.37033
C         35.30446        28.72781        -0.18116
C         34.03855        29.42742        -0.31645
C         35.29010        31.52929        -0.83996
C         34.02413        30.86826        -0.50575
C         35.27201        33.07130        -0.92841
C         34.03379        33.77699        -0.57485
C         35.29273        35.86777        -0.47496
C         34.08619        35.18848        -0.34209
C         35.34560        37.33147        -0.22274
C         34.05866        38.11226        -0.10716
C         35.29996        40.24861        -0.40323
C         34.09281        39.55225        -0.38582
C         35.30165        41.70534        -0.34729
C         34.06885        42.40225        -0.15853
C         35.31053        44.53591         0.00668
C         34.11148        43.80705         0.09589
C         35.32437        45.99175         0.16738
C         34.12193        46.69029         0.48034
C         35.30144        48.83297         0.30134
C         34.08639        48.09729         0.45621
C         35.33192        50.25884         0.41981
C         37.83818        22.95188         0.38307
C         36.50778        22.32267         0.67994
C         37.77957        24.46832         0.40134
C         36.54583        25.14331         0.16633
C         37.76099        27.31091         0.19114
C         36.53450        26.58715         0.03543
C         37.75200        28.75152         0.10303
C         36.53655        29.44648        -0.11632
C         37.72789        31.58636        -0.40578
C         36.56261        30.87030        -0.44263
C         37.79645        32.99326        -0.88953
C         36.54720        33.79673        -0.85629
C         37.79677        35.94786        -0.89176
C         36.53462        35.17359        -0.75485
C         37.82104        37.37803        -0.56997
C         36.52211        38.08805        -0.79985
C         37.77568        40.20736        -0.36792
C         36.54282        39.54008        -0.42596
C         37.77146        41.68222        -0.52423
C         36.50651        42.42091        -0.36860
C         37.78520        44.55769        -0.29635
C         36.53744        43.83845        -0.25483
C         37.74135        46.03293        -0.58096
C         36.50632        46.72553        -0.06398
C         37.76719        48.87365        -0.05380
C         36.52346        48.13866         0.05898
C         37.76867        50.27517         0.22556
C         36.51640        50.94159         0.41928
C         40.24541        20.27972         1.21077
C         39.06066        20.91708         1.26305
C         40.25662        23.13237         1.05217
C         38.94296        22.42123         1.31847
C         40.24520        24.49956         0.79331
C         38.98163        25.19705         0.55316
C         40.21858        27.36530         0.78700
C         38.96566        26.60863         0.44053
C         40.19830        28.80628         0.35356
C         38.99690        29.47647         0.18021
C         40.24479        31.70020         0.03151
C         38.93277        30.98902         0.27523
C         40.30811        33.03790        -0.26108
C         39.11542        33.72065        -0.82240
C         40.31873        35.95984        -0.42798
C         39.12435        35.22001        -0.88986
C         40.28482        37.35832        -0.31803
C         39.02395        38.06888        -0.42456
C         40.25142        40.22109        -0.00880
C         38.99814        39.50467        -0.32068
C         40.26874        41.72162         0.03723
C         39.04637        42.44399        -0.40370
C         40.27936        44.60142        -0.20847
C         39.01577        43.90984        -0.26056
C         40.26791        46.03833        -0.24935
C         39.03536        46.75449        -0.27763
C         40.23764        48.91729        -0.47120
C         38.99815        48.16548        -0.24188
C         40.24098        50.43308        -0.07451
C         38.98911        50.99244         0.42888
C         40.25472        52.83353         1.40796
C         39.04979        52.21490         1.14295
C         42.73633        20.29954         1.08666
C         41.49993        21.01049         1.16542
C         42.78609        23.15664         1.26415
C         41.48727        22.40717         1.12293
C         42.73986        24.55219         0.70877
C         41.50627        25.22630         0.63655
C         42.69090        27.33566         0.21764
C         41.49520        26.63025         0.45221
C         42.65597        28.78454         0.16128
C         41.46413        29.48452         0.29198
C         42.77478        31.69433         0.35453
C         41.46884        30.96237         0.40263
C         42.77418        33.14279         0.10630
C         41.52968        33.82017        -0.11112
C         42.72756        35.96299         0.31773
C         41.50601        35.22105        -0.15564
C         42.75068        37.41579        -0.05362
C         41.53278        38.10309        -0.16309
C         42.74761        40.25848        -0.13682
C         41.54047        39.52484        -0.13730
C         42.72469        41.71340        -0.13661
C         41.54786        42.44155        -0.09062
C         42.74918        44.60985        -0.01667
C         41.51627        43.89252        -0.14064
C         42.71864        46.03857        -0.01921
C         41.51739        46.73186        -0.20784
C         42.84998        48.95503        -0.37791
C         41.54464        48.18260        -0.49793
C         42.79242        50.44571        -0.13417
C         41.51318        51.06001         0.28701
C         42.74053        52.86948         1.44136
C         41.50087        52.25380         1.00748
C         43.93684        20.95734         0.89934
C         45.21687        23.07920         0.65800
C         44.01191        22.37455         0.86028
C         45.21287        24.52242         0.52769
C         43.96077        25.23596         0.46713
C         45.19017        27.30258        -0.06761
C         43.94122        26.62906         0.16186
C         45.19196        28.73790        -0.43801
C         43.88601        29.51466        -0.22372
C         45.19355        31.63519        -0.17242
C         43.99599        30.95243         0.01100
C         45.23598        33.07475        -0.04403
C         44.00179        33.81235         0.05819
C         45.21115        35.95455         0.02452
C         44.02339        35.25298         0.03252
C         45.22730        37.39669         0.02622
C         43.98742        38.12127        -0.04519
C         45.25517        40.22449        -0.06162
C         43.99422        39.54325        -0.13203
C         45.29036        41.69217        -0.25038
C         43.98906        42.45586        -0.30626
C         45.24059        44.55328         0.12240
C         44.00442        43.90567        -0.01465
C         45.26806        45.98757         0.45220
C         43.94774        46.78766         0.31101
C         45.26842        48.88772         0.35500
C         44.04490        48.22842         0.10960
C         45.32155        50.32017         0.40387
C         44.07017        51.12330         0.31680
C         43.94681        52.32362         1.16418
C         47.65796        23.09171         0.46567
C         46.47561        22.40619         0.56730
C         47.70127        24.52115         0.41525
C         46.42871        25.22265         0.38607
C         47.68850        27.31269        -0.16401
C         46.39641        26.62734         0.10301
C         47.70772        28.79165        -0.42647
C         46.43707        29.51805        -0.39328
C         47.67799        31.65152        -0.39879
C         46.43673        30.90848        -0.33551
C         47.66042        33.05357        -0.37126
C         46.45560        33.76024        -0.13651
C         47.73652        35.96985        -0.13338
C         46.50060        35.21201         0.27940
C         47.71560        37.38484        -0.03908
C         46.45826        38.09176         0.07773
C         47.72163        40.23489         0.46403
C         46.44384        39.52257         0.10022
C         47.73410        41.72028         0.18577
C         46.53121        42.43186         0.03646
C         47.73412        44.56876         0.21133
C         46.50012        43.85340         0.07643
C         47.74764        45.99636         0.28941
C         46.52505        46.73247         0.36458
C         47.75893        48.85588         0.49054
C         46.51168        48.14201         0.44406
C         47.74595        50.25530         0.55307
C         46.54215        50.97115         0.53099
C         50.19453        24.57531         0.40934
C         48.92856        25.21836         0.38264
C         50.20579        27.41737         0.09779
C         48.91628        26.72507         0.49576
C         50.20158        28.82797        -0.15471
C         48.96603        29.54837        -0.28528
C         50.18166        31.68031        -0.41640
C         48.94022        30.93975        -0.39659
C         50.17834        33.08490        -0.51062
C         48.89021        33.81383        -0.79812
C         50.15223        35.97643        -0.58490
C         48.91812        35.27728        -0.41653
C         50.16398        37.41909        -0.46831
C         48.94162        38.12027        -0.18918
C         50.17890        40.24484        -0.05515
C         48.96370        39.52540        -0.01947
C         50.20288        41.66976         0.16451
C         48.96561        42.40642         0.24982
C         50.19839        44.54232         0.36826
C         48.97405        43.84703         0.26982
C         50.22115        45.95783         0.33824
C         48.99024        46.69411         0.34615
C         50.25408        48.77390         0.49787
C         49.00710        48.11597         0.45172
C         51.37508        25.28414         0.37507
C         52.67357        27.41515         0.07236
C         51.41364        26.71103         0.19422
C         52.66905        28.81885        -0.17860
C         51.42530        29.53467        -0.27716
C         52.63475        31.68942        -0.56017
C         51.42414        30.96781        -0.41727
C         52.64045        33.09666        -0.62178
C         51.39135        33.81061        -0.58878
C         52.61665        35.93596        -1.00552
C         51.35850        35.23725        -0.72735
C         52.62195        37.46782        -0.90734
C         51.37105        38.14807        -0.53936
C         52.65581        40.24811        -0.21585
C         51.40695        39.54539        -0.28670
C         52.65183        41.63208         0.07762
C         51.44384        42.33997         0.22919
C         52.71289        44.52455         0.19867
C         51.47491        43.79049         0.66935
C         52.70156        45.94064         0.08645
C         51.46549        46.66969         0.28943
C         51.44720        48.07179         0.38683
C         55.11127        27.45064         0.14601
C         53.92127        26.75524         0.22242
C         55.11874        28.84235        -0.13270
C         53.89658        29.51673        -0.31197
C         55.16415        31.69505        -0.50641
C         53.90588        30.93050        -0.83381
C         55.14366        33.10599        -0.59873
C         53.89416        33.81949        -0.70194
C         55.11112        35.96714        -0.82600
C         53.89749        35.22368        -0.83105
C         55.11344        37.40954        -0.78085
C         53.90280        38.14866        -0.66523
C         55.15476        40.23834        -0.31690
C         53.90436        39.53035        -0.37044
C         55.18118        41.64313        -0.12554
C         53.94788        42.34521         0.38688
C         55.11814        44.51070        -0.23336
C         53.90822        43.81921         0.05237
C         55.08702        45.91639        -0.40109
C         53.90539        46.61291        -0.24177
C         56.35524        29.58131        -0.17916
C         56.36163        30.95112        -0.31230
C         56.35051        33.87157        -0.61029
C         56.33482        35.23679        -0.72901
C         56.33831        38.13971        -0.73346
C         56.35476        39.49738        -0.54256
C         56.35638        42.40352        -0.33204
C         56.34131        43.78505        -0.36356
O         34.92445        37.74314         1.10020
O         42.36175        48.50097        -1.68074
O         38.55986        42.04260        -1.73965
O         44.33092        29.08819        -1.56726
O         44.70191        42.09290        -1.54806
O         35.23576        32.20738        -2.12752
O         47.82270        27.77132        -1.52884
O         38.55587        35.69990        -2.14106
O         44.46923        46.35491         1.62336
O         31.04181        31.27487         1.15761
O         33.09876        44.98156         1.95386
O         30.79462        46.21640         2.12623
O         40.14568        49.95635        -1.46393
O         38.65681        33.12165        -2.08072
O         43.57293        51.26867        -1.06134
O         34.10603        25.65282        -1.50903
O         40.12474        40.97751         1.28769
O         28.23367        29.02913         1.18199
O         52.56429        36.78370        -2.20770
O         42.12871        31.37332         1.67056
O         29.20752        33.59082         1.52973
H         28.45249        34.04073         1.96224
O         46.59969        35.15930         1.75617
H         45.80669        34.68311         2.08497
O         32.99754        35.85261         1.66665
H         33.75187        36.45276         1.88964
O         54.04569        42.30075         1.87558
H         54.90125        42.71789         2.11645
O         42.94435        23.34344         2.73462
H         43.06907        22.45016         3.12136
O         47.77553        40.13633         1.93922
H         48.60789        40.56709         2.23065
O         40.22910        27.43846         2.26883
H         39.39582        27.87755         2.54418
O         42.62265        35.95242         1.80100
H         43.35035        36.51294         2.14724
O         51.58139        43.74177         2.13531
H         52.40829        43.23237         2.33232
O         37.61673        46.11466        -2.05487
H         38.35092        45.59170        -2.44325
O         31.42359        29.53503        -2.03788
H         31.58748        28.64059        -2.40721
O         32.77856        40.38456        -2.18667
H         31.95889        40.87116        -2.41954
O         38.22318        22.54657        -0.96674
H         37.54030        22.88143        -1.58538
O         48.73374        27.02732         1.92605
H         49.47049        26.60167         2.41378
O         38.69227        31.23894         1.71869
H         39.53684        31.06451         2.19057
O         38.52292        22.77477         2.66655
H         39.26187        22.57094         3.27688
O         48.79412        33.83132        -2.27459
H         49.61525        34.24545        -2.61800
O         53.93911        30.78358        -2.31402
H         54.75171        30.27839        -2.53195
O         30.06701        33.03954        -1.96951
H         30.84355        32.61658        -2.39367
O         36.28926        38.03733        -2.25238
H         37.09891        38.35734        -2.70446
H         26.96589        26.68856        -0.77153
H         25.68539        28.92584        -0.95128
H         25.71449        31.35848        -0.93427
H         25.67337        33.28700        -0.63646
H         25.68739        35.70577        -0.51453
H         25.68548        37.61281        -0.42991
H         25.71232        40.04055        -0.43938
H         25.74979        41.94147        -0.59126
H         25.80200        44.39839        -0.45780
H         27.00658        46.50479        -0.14019
H         29.08493        25.52104        -0.48169
H         29.01713        47.70762         0.60125
H         32.71673        23.42589         0.55446
H         30.66117        24.66548         0.32433
H         32.78648        49.87675         0.53287
H         30.72164        48.70747         0.96378
H         34.39490        22.48923         0.69522
H         34.40071        50.82239         0.55827
H         36.46531        21.24804         0.90372
H         36.50360        52.03253         0.54457
H         40.28844        19.17993         1.20728
H         38.13746        20.32476         1.33708
H         40.27230        53.77590         1.97317
H         38.12406        52.67422         1.51526
H         42.71286        19.20045         1.09742
H         42.67237        53.76782         2.07221
H         44.84180        20.35624         0.73505
H         44.85744        52.75208         1.60730
H         48.59399        22.51853         0.43331
H         46.50868        21.30962         0.61782
H         48.68354        50.82305         0.60159
H         46.57564        52.06878         0.56834
H         50.25064        23.47864         0.44847
H         50.30343        49.86582         0.59742
H         52.31621        24.72077         0.41441
H         52.38836        48.63739         0.39485
H         56.06743        26.92691         0.28816
H         53.95527        25.67610         0.42139
H         56.01707        46.44926        -0.64516
H         53.90997        47.70345        -0.36968
H         57.29878        29.03897        -0.02447
H         57.32276        31.47769        -0.23047
H         57.32046        33.36176        -0.54324
H         57.29530        35.76725        -0.73634
H         57.29667        37.62197        -0.86550
H         57.32548        40.00928        -0.52119
H         57.30405        41.89367        -0.55298
H         57.26780        44.33938        -0.56908
