         620
 CSIRO Nanostructure Databank - Neutral Graphene Oxide Data Set
C         22.93970        27.37623         0.00805
C         22.94105        28.71427        -0.32240
C         22.95586        31.61340        -0.66860
C         22.95286        32.99031        -0.70174
C         22.95745        35.89902        -0.67660
C         22.96472        37.27146        -0.60533
C         23.07264        40.07883         0.02622
C         23.07484        41.45399         0.29238
C         23.01943        44.34755         0.46959
C         23.00844        45.71144         0.65687
C         25.37053        24.62380         0.67272
C         24.17785        25.29062         0.53560
C         25.38945        27.34912        -0.03299
C         24.15775        26.66834         0.17742
C         25.36794        28.71312        -0.42732
C         24.15730        29.42254        -0.53980
C         25.37114        31.58510        -0.91661
C         24.16496        30.87295        -0.75163
C         25.38496        33.01383        -0.92229
C         24.15963        33.72807        -0.80526
C         25.39564        35.88277        -0.92189
C         24.16775        35.16941        -0.80528
C         25.40121        37.31169        -0.89829
C         24.17635        38.00703        -0.69651
C         25.31438        40.23908        -1.10179
C         24.16133        39.43615        -0.55181
C         25.43092        41.61326        -0.45136
C         24.23316        42.22766         0.11157
C         25.52540        44.31423         0.73093
C         24.23536        43.62265         0.37876
C         25.46709        45.80714         0.48903
C         24.22219        46.47119         0.61976
C         25.34082        48.62481         0.53549
C         24.17500        47.88690         0.62752
C         27.90701        23.18508         0.89367
C         27.87486        24.57795         0.64218
C         26.62298        25.28443         0.48266
C         27.88776        27.36136         0.00840
C         26.63556        26.65531         0.13771
C         27.91102        28.72596        -0.38857
C         26.64158        29.35091        -0.79589
C         27.91647        31.55389        -0.97125
C         26.63676        30.84133        -1.08039
C         27.85995        32.99054        -1.30936
C         26.61044        33.74662        -1.08751
C         27.87663        35.89335        -1.14863
C         26.62625        35.15139        -1.06373
C         27.86767        37.35075        -1.11053
C         26.64353        38.05006        -1.00716
C         27.82197        40.20950        -1.14939
C         26.63736        39.48588        -1.04441
C         27.72037        41.71887        -1.37708
C         26.58879        42.32457        -0.57534
C         27.88228        44.51940        -0.38714
C         26.85079        43.58316         0.22336
C         27.84507        45.88542        -0.16223
C         26.63553        46.56445         0.27165
C         27.82402        48.76654         0.28345
C         26.58911        47.98912         0.34557
C         27.85962        50.15568         0.52533
C         30.34313        23.18992         0.95727
C         29.10252        22.51207         1.03788
C         30.34522        24.59027         0.71843
C         29.10797        25.28252         0.54491
C         30.34508        27.40904         0.20065
C         29.11374        26.68688         0.25506
C         30.34069        28.80665        -0.08354
C         29.11580        29.46270        -0.41939
C         30.36740        31.62811        -0.64440
C         29.11138        30.88835        -0.73387
C         30.39932        33.04437        -0.96660
C         29.16123        33.74905        -1.38065
C         30.32841        35.95652        -1.46835
C         29.08190        35.21875        -1.26426
C         30.34402        37.41362        -1.28685
C         29.09623        38.08932        -1.17028
C         30.32272        40.22358        -1.18845
C         29.08440        39.52505        -1.16832
C         30.35875        41.69749        -1.26363
C         29.05525        42.46497        -1.26308
C         30.33858        44.51262        -0.70551
C         29.10393        43.87028        -0.80764
C         30.36125        45.98011        -0.61490
C         29.02267        46.71381        -0.44861
C         30.28032        48.80152         0.06202
C         29.04617        48.11109         0.00484
C         30.28881        50.21175         0.27081
C         29.05708        50.86067         0.48048
C         32.83715        20.41725         1.47676
C         31.63389        21.09041         1.34370
C         32.82387        23.19801         1.03450
C         31.59514        22.48190         1.11105
C         32.81846        24.61510         0.82327
C         31.58669        25.31367         0.65960
C         32.80987        27.45669         0.47157
C         31.58081        26.72322         0.44234
C         32.78166        28.88607         0.29760
C         31.56533        29.55537         0.00184
C         32.73786        31.79866         0.17408
C         31.53166        30.97888        -0.22135
C         32.81420        33.15524        -0.49790
C         31.58913        33.76658        -0.91801
C         32.85878        35.96546        -1.12547
C         31.63646        35.17994        -1.35124
C         32.82846        37.38387        -1.24066
C         31.57122        38.10265        -1.26792
C         32.79219        40.27114        -1.15613
C         31.56077        39.53942        -1.17319
C         32.83718        41.67445        -0.93085
C         31.60952        42.39777        -0.90588
C         32.81527        44.45433        -0.35077
C         31.59263        43.78911        -0.70435
C         32.74754        45.85111         0.15705
C         31.55773        46.68099        -0.13285
C         32.73525        48.79182         0.49164
C         31.52038        48.04191         0.09778
C         32.74849        50.24542         0.22585
C         31.55577        50.94861         0.23169
C         32.74413        53.08644         0.50349
C         31.58601        52.38992         0.36280
C         35.37177        18.95130         1.62502
C         35.32908        20.35596         1.47746
C         34.07103        21.09336         1.39667
C         35.29120        23.24677         1.15654
C         34.06354        22.50363         1.19016
C         35.30809        24.62795         0.94315
C         34.05184        25.33777         0.79214
C         35.30334        27.46991         0.81232
C         34.02738        26.74112         0.65952
C         35.29516        28.96012         0.66374
C         34.01811        29.65146         0.34167
C         35.29374        31.76782         0.23303
C         34.02491        31.00761         0.15244
C         35.26492        33.21616        -0.13625
C         34.00257        33.86914        -0.55418
C         35.30328        36.00280        -0.91178
C         34.05792        35.27700        -0.87716
C         35.29096        37.41420        -1.15615
C         34.05642        38.09269        -1.27954
C         35.37088        40.32272        -1.32987
C         34.02921        39.55218        -1.45182
C         35.33648        41.69334        -0.80146
C         34.08157        42.36831        -0.68305
C         35.26701        44.40380         0.20377
C         34.02432        43.74759        -0.29117
C         35.31777        45.88384         0.26938
C         34.03832        46.56906         0.50921
C         35.31666        48.77659         0.39492
C         34.04151        48.06143         0.63707
C         35.31356        50.19610         0.31270
C         34.04406        50.92313         0.11237
C         35.31406        53.08566         0.71931
C         34.04949        52.46106         0.26509
C         35.33035        54.38853         1.22559
C         37.81017        18.95026         1.54104
C         36.58170        18.27608         1.69210
C         37.79112        20.36285         1.34875
C         36.55380        21.05293         1.38973
C         37.86561        23.24107         1.11152
C         36.55087        22.52221         1.39721
C         37.80521        24.64489         0.69220
C         36.57195        25.33464         0.76554
C         37.77986        27.44231         0.38436
C         36.57602        26.74471         0.61855
C         37.78117        28.88763         0.28439
C         36.57879        29.62541         0.36276
C         37.79726        31.70309         0.04633
C         36.58240        31.02395         0.18598
C         37.79694        33.12309        -0.37677
C         36.52997        33.86878        -0.57882
C         37.76439        36.03000        -0.89833
C         36.53884        35.34261        -0.73086
C         37.76409        37.39872        -1.16933
C         36.54379        38.12435        -1.22193
C         37.83691        40.23032        -0.97193
C         36.59849        39.54307        -1.18450
C         37.82387        41.64172        -0.67479
C         36.57710        42.29858        -0.48809
C         37.85435        44.41215         0.03814
C         36.58887        43.65820         0.07336
C         37.79893        45.85249         0.34949
C         36.50460        46.59241         0.26473
C         37.74013        48.79394        -0.01562
C         36.50225        48.03978         0.27549
C         37.76992        50.24833         0.23568
C         36.53403        50.93412         0.34869
C         37.76580        52.99919         0.93559
C         36.53180        52.35530         0.62236
C         37.74758        54.31830         1.46071
C         36.53160        54.97995         1.62629
C         40.35694        16.21113         2.03112
C         39.15664        16.88911         2.04251
C         40.25079        18.86195         1.11778
C         39.07754        18.22952         1.57903
C         40.15789        20.23462         0.59278
C         38.99996        21.06198         0.96471
C         40.24740        23.13148         0.33859
C         39.04872        22.43663         0.76756
C         40.24068        24.56056         0.19314
C         39.01483        25.30515         0.35003
C         40.23156        27.41764        -0.05438
C         39.00721        26.72546         0.21058
C         40.23753        28.85015        -0.11040
C         39.01544        29.57284         0.07639
C         40.27500        31.69078        -0.14288
C         39.03002        30.99583         0.03575
C         40.31077        33.17060         0.00809
C         39.02713        33.92101        -0.13584
C         40.34337        35.98217        -0.85537
C         39.04162        35.36948        -0.51157
C         40.30983        37.32924        -1.47365
C         39.00189        38.12333        -1.63204
C         40.29846        40.25303        -1.03151
C         39.06099        39.54156        -1.08495
C         40.29838        41.68392        -0.77042
C         39.07062        42.34909        -0.54753
C         40.31978        44.50477        -0.25360
C         39.05719        43.77443        -0.24754
C         40.33935        45.89829        -0.07712
C         39.09180        46.60886         0.25286
C         40.30678        48.81107         0.08763
C         39.05056        48.06199        -0.07392
C         40.25267        50.20344         0.18400
C         39.01284        50.93165         0.32728
C         40.23912        53.00855         0.97658
C         39.01972        52.31310         0.72323
C         40.27485        54.26831         1.60567
C         38.99342        54.96369         2.02185
C         40.26345        57.07977         1.90081
C         39.11209        56.43890         1.67573
C         42.78221        16.13779         1.58073
C         41.54329        16.83633         1.56684
C         42.71640        18.84254         0.68539
C         41.49795        18.18544         1.10327
C         42.71273        20.22317         0.32823
C         41.44154        20.94954         0.20291
C         42.68538        23.08754        -0.09652
C         41.45457        22.41890         0.17419
C         42.65422        24.49804        -0.31589
C         41.45107        25.23717        -0.15278
C         42.64172        27.41277        -0.47782
C         41.44330        26.68969        -0.25712
C         42.66072        28.82831        -0.54401
C         41.43659        29.56119        -0.39505
C         42.61046        31.77363        -1.02022
C         41.43576        30.99231        -0.44302
C         42.87381        33.08357        -0.22138
C         41.59650        33.93002        -0.10443
C         42.81539        36.01536        -0.83498
C         41.54683        35.33551        -0.61906
C         42.84094        37.41559        -1.06284
C         41.59323        38.12044        -1.43254
C         42.75689        40.34217        -1.39533
C         41.51102        39.58709        -1.27712
C         42.78667        41.76230        -1.01858
C         41.55159        42.40965        -0.74267
C         42.78596        44.54164        -0.47707
C         41.55211        43.81651        -0.48815
C         42.78950        45.95712        -0.27512
C         41.54916        46.65380        -0.12298
C         42.78085        48.78750         0.12003
C         41.53803        48.07934         0.03379
C         42.78207        50.20067         0.25345
C         41.52205        50.93804         0.14149
C         42.78059        52.99130         1.03827
C         41.51692        52.42341         0.54194
C         42.74433        54.31062         1.61601
C         41.50014        54.93129         1.85615
C         42.74017        57.07429         2.31222
C         41.44669        56.32342         2.45948
C         43.94027        16.75804         1.17308
C         45.16583        18.74085         0.30152
C         43.94349        18.10897         0.72491
C         45.12365        20.12329        -0.17010
C         43.89655        20.92857        -0.00657
C         45.17592        23.00700        -0.71005
C         43.89988        22.32489        -0.22203
C         45.18636        24.49849        -0.49536
C         43.90105        25.17860        -0.72214
C         45.17236        27.41150        -0.53414
C         43.90279        26.70381        -0.75081
C         45.13257        28.83693        -0.57705
C         43.90226        29.51616        -0.73402
C         45.21244        31.68713        -1.06143
C         43.90190        30.95105        -1.09211
C         45.23987        33.16945        -0.93819
C         44.06370        33.86591        -0.73873
C         45.29027        36.00419        -0.91247
C         44.04743        35.30155        -0.78498
C         45.29513        37.43243        -1.02059
C         44.06151        38.11329        -1.12874
C         45.31824        40.30287        -1.14658
C         44.07175        39.56370        -1.39581
C         45.28276        41.72485        -1.05807
C         44.03513        42.44182        -0.94546
C         45.24293        44.59778        -0.64500
C         44.02895        43.85984        -0.67557
C         45.26510        45.98643        -0.38308
C         44.02433        46.67460        -0.20212
C         45.24891        48.80387         0.14681
C         44.01782        48.07924         0.04047
C         45.22107        50.19678         0.36767
C         43.99096        50.90995         0.46347
C         45.21728        52.83928         1.54813
C         43.97051        52.28772         0.89628
C         45.20513        54.33614         1.75948
C         43.98557        55.01272         1.85147
C         43.91282        56.44542         2.09640
C         47.62397        18.78135         0.28723
C         46.40664        18.08830         0.32618
C         47.68421        20.17611         0.18642
C         46.49069        20.88986        -0.25535
C         47.58956        23.06477         0.08922
C         46.44123        22.34799        -0.21708
C         47.60393        24.51917        -0.01392
C         46.37007        25.21083        -0.33379
C         47.61559        27.35608        -0.26366
C         46.38430        26.67322        -0.38624
C         47.61037        28.82896        -0.18853
C         46.37983        29.58159        -0.52384
C         47.73046        31.65403        -1.05706
C         46.43742        30.93529        -0.73412
C         47.69791        33.13794        -0.81059
C         46.51176        33.85574        -0.93221
C         47.77187        35.99855        -1.07461
C         46.51782        35.29894        -0.92477
C         47.77114        37.43867        -1.21092
C         46.53482        38.15264        -1.14766
C         47.79712        40.32720        -1.45740
C         46.52402        39.57823        -1.16201
C         47.76679        41.76080        -0.99539
C         46.53998        42.42651        -0.96798
C         47.81450        44.63306        -0.75193
C         46.50142        43.89773        -0.95446
C         47.76494        46.04074        -0.30337
C         46.51543        46.71623        -0.24322
C         47.74601        48.82886         0.21505
C         46.50376        48.10720         0.04873
C         47.74791        50.22248         0.34262
C         46.48471        50.94590         0.36760
C         47.76922        52.98465         1.30535
C         46.48778        52.37190         0.86516
C         47.66903        54.28765         1.89434
C         46.46596        54.94397         2.04276
C         50.08444        20.28736         0.87595
C         48.84091        20.95602         0.54506
C         49.95530        23.14504         0.90888
C         48.78531        22.35481         0.48911
C         50.03718        24.56472         0.47942
C         48.80630        25.23517         0.15179
C         50.09919        27.33014        -0.06141
C         48.84682        26.66082        -0.06249
C         50.17844        28.77479        -0.49639
C         48.92126        29.56058        -0.19466
C         50.19535        31.67345        -0.54477
C         48.96311        30.98910        -0.53201
C         50.22727        33.09464        -0.67652
C         48.95541        33.86977        -0.42986
C         50.25165        35.88347        -1.28043
C         48.96672        35.26678        -0.99425
C         50.28066        37.44678        -1.34911
C         49.00660        38.16653        -1.20372
C         50.27480        40.26313        -0.91423
C         49.04471        39.56351        -1.11227
C         50.27931        41.67949        -0.72322
C         49.01978        42.44904        -0.77765
C         50.31379        44.58186        -0.45675
C         49.02464        43.81870        -0.55830
C         50.18608        45.91456         0.26117
C         48.96402        46.71465         0.03059
C         50.24579        48.81255         0.44205
C         48.99003        48.10289         0.25350
C         50.26362        50.23403         0.50435
C         49.01017        51.03765         0.24988
C         50.24099        52.97206         1.27478
C         48.97398        52.34521         1.03020
C         51.21527        20.95871         1.19630
C         52.50570        23.15361         1.24317
C         51.21420        22.42285         1.32510
C         52.54263        24.41193         0.41824
C         51.25798        25.21861         0.41902
C         52.58856        27.28726        -0.01352
C         51.31291        26.62569         0.11910
C         52.65836        28.72200        -0.17873
C         51.38910        29.50651         0.09521
C         52.63968        31.63749        -0.41775
C         51.42908        30.95569        -0.36016
C         52.68976        33.04809        -0.64107
C         51.46399        33.77624        -0.74388
C         52.72564        35.90504        -0.97233
C         51.50316        35.19433        -0.96012
C         52.73415        37.35853        -0.95572
C         51.53881        38.11237        -1.00850
C         52.71353        40.22358        -0.51106
C         51.50961        39.53398        -0.80108
C         52.72871        41.62274        -0.30854
C         51.49090        42.32448        -0.39772
C         52.76333        44.46456         0.31841
C         51.45754        43.73142         0.04220
C         52.75738        45.93379         0.34165
C         51.48505        46.64122         0.56139
C         52.71636        48.79979         0.51237
C         51.47217        48.11018         0.51941
C         52.72000        50.22024         0.64341
C         51.47064        50.92453         0.70574
C         51.42370        52.33087         1.03455
C         54.91954        23.29048         1.58485
C         53.66879        22.61966         1.72432
C         55.00549        24.57402         1.05024
C         53.79500        25.22380         0.62390
C         55.10007        27.19466        -0.06935
C         53.79768        26.55921         0.21906
C         55.11588        28.64455        -0.47683
C         53.85315        29.39423        -0.32586
C         55.18425        31.61183        -0.42322
C         53.89303        30.87419        -0.21367
C         55.15149        33.03838        -0.76320
C         53.94441        33.75416        -0.75180
C         55.21309        35.90331        -0.88973
C         53.95624        35.19161        -0.86820
C         55.20939        37.35444        -0.82489
C         53.98051        38.02944        -0.74663
C         55.28247        40.22122        -0.39418
C         53.95296        39.44832        -0.37797
C         55.23051        41.69573        -0.43953
C         53.98985        42.35433        -0.18527
C         55.21274        44.50783        -0.09004
C         54.00984        43.75525         0.00790
C         55.20005        45.93605         0.06747
C         53.95597        46.64223         0.24588
C         55.18224        48.78952         0.38996
C         53.95667        48.08444         0.38620
C         55.15453        50.20609         0.55009
C         53.97130        50.89458         0.67551
C         57.48045        24.70769         1.50323
C         56.28276        25.30006         1.00626
C         57.56659        27.33989         0.46650
C         56.34293        26.59124         0.45917
C         57.64432        28.70071         0.02192
C         56.43621        29.36259        -0.51760
C         57.71107        31.56847        -0.35867
C         56.45442        30.85525        -0.64455
C         57.73524        33.01501        -0.67722
C         56.42391        33.73747        -0.94838
C         57.71470        35.86759        -1.14377
C         56.41788        35.20010        -0.91245
C         57.71050        37.39961        -1.24316
C         56.44461        38.10091        -0.91636
C         57.68798        40.23943        -1.18301
C         56.46872        39.48195        -0.82391
C         57.66382        41.76221        -1.03097
C         56.41917        42.43001        -0.58521
C         57.68195        44.55819        -0.40023
C         56.43835        43.83097        -0.37201
C         57.66376        45.96478        -0.17208
C         56.42479        46.66146         0.03351
C         57.67448        48.76514         0.22228
C         56.43185        48.07872         0.21854
C         58.67494        25.38914         1.47654
C         59.96050        27.45292         1.03096
C         58.74296        26.72059         0.98497
C         60.00374        28.77181         0.64374
C         58.84086        29.43719         0.15646
C         60.12310        31.64667        -0.08837
C         58.87501        30.88110        -0.10274
C         60.15790        32.99446        -0.16333
C         58.89610        33.82655        -0.13060
C         60.13784        35.94132        -0.77629
C         58.97810        35.20555        -0.76804
C         60.15687        37.35405        -0.97324
C         58.99864        38.10473        -1.07184
C         60.14468        40.32438        -1.12270
C         58.99040        39.55334        -1.11133
C         60.12362        41.73464        -1.01792
C         58.94887        42.46360        -0.86766
C         60.12941        44.63792        -0.55096
C         58.92532        43.88482        -0.59717
C         60.11623        46.00010        -0.34265
C         58.89021        46.69164        -0.15597
C         58.86811        48.09644         0.04924
O         57.51454        41.11428        -2.34799
O         33.23174        45.92781         1.54500
O         27.52514        43.03267         1.33995
O         47.22657        44.47869        -2.10324
O         26.63139        29.85854        -2.17737
O         54.70010        39.71465         0.85664
O         51.92741        43.87568         1.39640
O         43.83771        25.90975        -1.99313
O         29.79768        42.26467        -2.52137
O         44.61895        31.22564        -2.35900
O         33.31019        48.50628         1.82710
O         50.32577        36.62217        -2.54297
O         57.33809        33.25302        -2.04588
O         34.71744        40.09942        -2.62300
O         35.87505        43.74874         1.36697
O         43.45779        39.99449        -2.65713
O         41.00452        33.67895         1.21319
O         29.66342        46.58027        -1.75981
O         28.51555        33.25101        -2.60675
O         50.64628        46.02440         1.62616
O         55.12077        27.59029        -1.49622
O         41.54844        52.01466        -0.85782
O         54.66927        31.34397         0.95794
O         48.25720        29.28443         1.07735
O         50.29406        22.95900         2.34434
O         46.42165        52.15118        -0.56401
O         56.57328        30.01572        -1.83582
O         37.37452        23.06550         2.48923
O         57.70073        36.56591        -2.43726
O         37.21068        33.23294        -1.73147
O         38.89194        34.93394         0.90306
O         31.04566        35.46470        -2.66106
O         35.27319        32.82528         1.29100
O         34.14069        51.82831        -1.04546
O         38.34478        48.37451        -1.32015
O         35.29663        28.35037         2.00713
O         40.54324        20.35914        -0.81888
O         41.10420        37.49045        -2.69440
O         38.55108        46.25463         1.56832
O         45.82443        20.32142        -1.43832
O         32.53814        32.12366         1.60259
H         33.40095        32.48660         1.92172
O         47.84211        40.41422        -2.93843
H         47.02147        40.86781        -3.22981
O         38.77044        38.30646        -3.06162
H         39.65766        38.27909        -3.49643
O         45.16463        22.84585        -2.17169
H         45.31269        21.88252        -2.34441
O         38.85824        54.85345         3.46804
H         39.62252        55.34107         3.86975
O         41.21980        56.18496         3.91095
H         42.00148        55.72750         4.28688
O         52.63527        23.93085        -0.98818
H         53.54975        23.60169        -1.12504
O         50.29761        28.78331        -1.94037
H         51.08032        28.24850        -2.19178
O         49.08132        51.45205        -1.16680
H         48.21903        51.89455        -1.36308
O         25.52436        44.14548         2.17803
H         26.37002        43.62106         2.35809
O         51.21169        29.52371         1.53400
H         51.91500        30.08326         1.92496
O         58.56103        34.05958         1.27707
H         59.34550        34.45016         1.71627
O         50.68382        44.92402        -1.83795
H         49.86562        44.97049        -2.37905
O         43.28022        32.65922         1.10173
H         42.52349        32.86030         1.70810
O         27.30287        41.87714        -2.77395
H         28.13197        41.85241        -3.31182
O         47.83121        31.51629        -2.53324
H         46.92799        31.62322        -2.90653
O         25.00019        40.43064        -2.51435
H         25.74043        40.96940        -2.89718
O         45.28907        52.23032         2.88632
H         44.52731        52.56156         3.40691
O         48.90739        34.00918         1.05575
H         48.04757        34.42581         1.28084
O         42.20775        32.13950        -2.35467
H         42.98060        31.96996        -2.94544
H         21.98788        26.84574         0.15417
H         21.97641        29.22636        -0.43111
H         21.99492        31.09408        -0.56532
H         21.98865        33.50949        -0.63346
H         21.99505        35.37554        -0.62124
H         22.00733        37.80009        -0.51350
H         22.19765        39.49931         0.35154
H         22.18619        41.89434         0.76391
H         22.06126        43.81846         0.36715
H         22.05191        46.24665         0.75022
H         25.34933        23.56213         0.95064
H         23.22602        24.76492         0.69784
H         25.28038        49.72022         0.57571
H         23.20313        48.39251         0.71858
H         26.97379        22.61206         0.96399
H         26.93485        50.70774         0.73850
H         29.07331        21.43038         1.22073
H         29.02460        51.94477         0.65004
H         32.81072        19.33340         1.64732
H         30.70412        20.51222         1.41712
H         32.69875        54.15128         0.77143
H         30.63735        52.92964         0.48403
H         34.44427        18.37046         1.70843
H         34.39696        54.95734         1.32940
H         36.56675        17.18594         1.82327
H         36.51046        55.98127         2.07751
H         40.40887        15.17402         2.39240
H         38.25884        16.38367         2.42221
H         40.37260        58.15449         1.69000
H         38.24065        56.97718         1.27311
H         42.80547        15.09661         1.93268
H         42.71966        58.16095         2.48426
H         44.88017        16.19202         1.20316
H         44.84134        57.03286         2.06486
H         48.53709        18.20388         0.48321
H         46.45183        17.01071         0.53199
H         48.58688        54.81411         2.18926
H         46.48694        55.97716         2.41763
H         50.12911        19.19330         0.79345
H         50.26707        54.00451         1.65011
H         52.16203        20.41304         1.31881
H         52.36099        52.87513         1.20943
H         55.81325        22.77740         1.96095
H         53.65644        21.65379         2.25018
H         56.09172        50.77665         0.56254
H         54.00617        51.98738         0.77329
H         57.46228        23.69126         1.91693
H         57.70266        49.85223         0.36971
H         59.58913        24.91676         1.86366
H         60.86467        26.95943         1.41522
H         60.94922        29.32248         0.73481
H         61.07527        31.09766        -0.06770
H         61.13235        33.50500        -0.16900
H         61.09526        35.45916        -0.53042
H         61.13189        37.85712        -0.91685
H         61.12715        39.83286        -1.14840
H         61.09499        42.24507        -0.97368
H         61.09424        44.13516        -0.69766
H         61.05838        46.56610        -0.32242
H         59.81775        48.65013         0.06181
