         261
 CSIRO Nanostructure Databank - Neutral Graphene Oxide Data Set
C        -11.04992         0.74895        -0.96623
C         -9.93785         1.50854        -0.32886
C         -8.66212         0.76862        -0.08062
C         -7.42150         1.57484         0.16576
C         -6.16193         0.83243         0.48713
C         -5.02118         1.52073         1.18380
C         -3.69557         0.79413         1.16004
C         -2.48287         1.46490         0.62464
C         -1.31253         0.58530         0.26486
C         -0.08499         1.30769        -0.24031
C          1.26476         0.71938         0.04768
C          2.45455         1.42022        -0.53584
C          3.71356         0.65010        -0.79423
C          5.00952         1.39777        -0.72612
C          6.25851         0.68658        -0.29977
C          7.52932         1.44704        -0.28909
C          8.76343         0.73445        -0.71672
C         10.06276         1.54010        -0.64227
C         11.16990         0.63576        -0.12401
C         -9.88463         2.99895        -0.34561
C         -8.81998         3.70747         0.10910
C         -7.61558         2.99614         0.62611
C         -6.38447         3.75170         1.03616
C         -5.04133         3.02120         1.15091
C         -3.88865         3.64820         0.38712
C         -2.66469         2.82563        -0.00498
C         -1.47494         3.49646        -0.64137
C         -0.16357         2.73433        -0.70815
C          1.09469         3.56301        -0.86673
C          2.39905         2.85795        -1.00634
C          3.68864         3.62424        -0.82031
C          5.00331         2.91522        -0.67792
C          6.20001         3.60373        -0.02013
C          7.53201         2.97185        -0.56614
C          8.74249         3.56192         0.16342
C          9.87760         2.82885         0.18337
C         -8.88084         5.22459         0.27282
C         -7.53938         5.95760         0.29153
C         -6.39028         5.29882         1.06311
C         -5.00109         5.94363         0.74846
C         -3.91960         5.12441         0.08845
C         -2.72958         5.80203        -0.60004
C         -1.48002         5.00295        -0.89848
C         -0.14625         5.74253        -0.96493
C          0.95660         4.95862        -0.25408
C          2.28576         5.69187        -0.02130
C          3.60572         5.00867        -0.24785
C          4.88646         5.80286        -0.28038
C          6.21162         5.10766        -0.21177
C          7.38609         5.79171         0.41121
C          8.60596         4.94618         0.81286
C         -7.48423         7.29073         0.03047
C         -6.20298         8.09445        -0.06007
C         -4.96770         7.40641         0.49963
C         -3.69514         8.09854         0.07506
C         -2.65084         7.31651        -0.65753
C         -1.35710         8.04859        -0.98139
C         -0.06879         7.25056        -1.05292
C          1.24294         7.96602        -0.68091
C          2.20808         7.20469         0.24306
C          3.52627         7.93513        -0.13937
C          4.76467         7.17974         0.28242
C          6.01462         7.86849         0.73218
C          7.29741         7.10224         0.75449
C         -6.19209         9.55563         0.34757
C         -5.03542        10.24447         0.30865
C         -3.72004         9.58615         0.02116
C         -2.59858        10.29119        -0.74614
C         -1.31128         9.48364        -0.61062
C         -0.13462        10.07561        -0.21796
C          1.10949         9.38448        -0.16521
C          2.28770        10.03815         0.24788
C          3.51867         9.37212         0.30329
C          4.76026        10.01058         0.63027
C          5.94992         9.34062         0.76455
C        -10.96824        -0.56546        -1.26031
C         -9.68422        -1.31716        -1.21045
C         -8.49159        -0.61188        -0.65487
C         -7.27381        -1.41253        -0.25636
C         -6.08573        -0.66562         0.25599
C         -4.98414        -1.43634         0.91321
C         -3.74985        -0.69770         1.32823
C         -2.45409        -1.45404         1.50811
C         -1.23343        -0.79279         0.87821
C          0.12206        -1.44346         1.04646
C          1.32489        -0.73462         0.48917
C          2.49031        -1.53632        -0.01986
C          3.66707        -0.83720        -0.61735
C          4.97935        -1.55542        -0.46838
C          6.25562        -0.81971        -0.27829
C          7.58886        -1.52960        -0.25376
C          8.75676        -0.76916        -0.80895
C         10.08284        -1.53517        -0.86195
C         11.16801        -0.70679        -0.19327
C         -9.59226        -2.78414        -1.33716
C         -8.45744        -3.51482        -0.99910
C         -7.33526        -2.93322        -0.15015
C         -5.93346        -3.53936        -0.38235
C         -4.95534        -2.93909         0.68785
C         -3.75819        -3.72736         1.17528
C         -2.47881        -2.97209         1.54820
C         -1.13862        -3.70703         1.46123
C          0.15082        -2.94399         1.25034
C          1.45238        -3.69611         0.94811
C          2.67437        -2.95745         0.44290
C          3.83786        -3.73209        -0.13339
C          4.94022        -3.00045        -0.87456
C          6.19458        -3.74365        -1.29707
C          7.65665        -3.12268        -1.39894
C          8.81634        -3.76410        -0.57512
C          9.92388        -2.95482        -0.33735
C         -8.36098        -4.89431        -1.29572
C         -7.22873        -5.67038        -0.92082
C         -6.20267        -5.00000        -0.02152
C         -4.85297        -5.73024        -0.03201
C         -3.71548        -5.25876         0.90493
C         -2.35974        -5.78798         0.44370
C         -1.11809        -5.11884         0.93312
C          0.14533        -5.93239         1.05458
C          1.44108        -5.19165         0.85605
C          2.63744        -5.97194         0.36542
C          3.72505        -5.21564        -0.34795
C          4.93790        -5.97449        -0.83197
C          6.12053        -5.20573        -1.25810
C          7.86139        -6.10378        -0.28650
C          8.76456        -5.05680         0.03871
C         -7.17428        -7.01422        -1.22385
C         -5.94031        -7.87188        -1.13266
C         -4.71619        -7.08017        -0.68248
C         -3.47165        -7.92012        -0.47793
C         -2.27542        -7.26145         0.09941
C         -1.31274        -8.13129         0.92352
C          0.08553        -7.42012         0.95014
C          1.18325        -8.14279         0.04336
C          2.55404        -7.44438         0.15738
C          3.72066        -8.19997        -0.43077
C          5.03257        -7.46686        -0.60443
C          6.32570        -8.09431        -0.05601
C          7.43173        -7.21355         0.40910
C         -6.05242        -9.09797        -0.24026
C         -4.96621        -9.82143         0.07211
C         -3.61483        -9.44562        -0.49861
C         -2.39728       -10.18286         0.02827
C         -1.22565        -9.57035         0.41689
C          0.00621       -10.28158         0.58492
C          1.24870        -9.61826         0.48949
C          2.49619       -10.20775         0.66293
C          3.73510        -9.64085         0.09628
C          5.04089       -10.15688         0.56287
C          6.17839        -9.43017         0.57868
O          8.50470         0.03172        -1.97750
O         -7.56608        -3.45353         1.21649
O          0.75171        -8.01167        -1.23306
O         -3.14692         8.89330         1.18612
O         -0.30383        -3.36936         2.57437
O         -2.36471         7.78784        -2.00714
O         -9.61504         0.90366         1.00257
O         -4.92003        -3.53769         2.01868
O         -4.54360         4.17873        -0.82196
O         -6.38459         1.47133        -0.83561
O          1.68334         3.33287        -2.17513
O          7.70714         3.19243        -1.91480
O          4.46405         0.94803        -1.99964
O         -2.72434         1.43284         2.05580
O         -6.89677        -4.83090         1.26837
O          5.99059        -8.10705        -1.47459
O         -0.21198         1.63901        -1.65554
O          2.99257         5.03109         1.08897
O          7.95084        -2.71012        -2.56684
O          5.47133        -1.29640         0.88234
O          7.24126        -5.87044        -1.59081
O         -1.82505        -8.21962         2.18809
O          5.72632         5.67762        -1.45426
O         -1.57688        -4.99354        -0.47606
O          5.19426        -3.20592        -2.26252
O          3.44155         7.92750        -1.60446
O         -4.44884        -5.86814        -1.43061
O         -2.44015        -2.15720         2.75886
O          3.04239        -6.90322         1.42782
O          3.84055        -3.27377         1.25056
O         -2.34168        -7.51267        -1.32218
O          2.67034        -1.45780        -1.47365
O         -4.73443         6.88095         1.82996
O         -8.67213        -0.64829        -2.09883
O          1.81785        -4.50863         2.09157
O          2.01634         8.09221        -1.93631
O          3.52605        -9.27840        -1.33351
O          0.36264        -6.83868         2.20008
O         -2.43431         5.29991        -1.93159
O          2.14814         1.49716         0.91480
O          5.01720         7.26961         1.70350
O          0.12441         6.39368        -2.21585
O         -7.32129         3.22624         2.02317
O         -2.47441         2.79895        -1.43524
O          3.79841        -5.58757        -1.74250
O         -6.16804        -1.01311        -1.15396
O         -1.59026        -0.59749        -0.54255
O         -5.04041         2.30931         2.41297
O          4.59562         3.49321        -1.93985
O         -6.81788         5.71780         2.31935
O         -4.77447        -1.06199         2.29523
O          1.08144        -0.79153         1.92531
O          6.89970         1.09146         0.98023
O          0.38625         4.71829         1.06068
H          1.13231         4.53586         1.67945
O         -5.70383        -8.30963        -2.49168
H         -5.33557        -7.54541        -2.98509
O         -3.92923        -5.89983         2.17223
H         -4.59472        -5.37353         2.67256
O          7.85559        -1.98760         1.03037
H          7.00858        -1.97102         1.54287
O         10.38155         1.98090        -1.97157
H          9.56701         2.42756        -2.31915
O          6.10283         3.48547         1.41697
H          6.25261         2.53943         1.67209
O         -2.93405        10.44711        -2.12409
H         -2.93384         9.55045        -2.53662
O         -3.59400        -9.84592        -1.89284
H         -2.90387        -9.30097        -2.33501
O          8.51365         4.75823         2.23455
H          7.63526         4.34636         2.41116
O         -9.73812         5.79436        -0.71436
H         -9.35918         5.61651        -1.59939
O         -5.90001         8.09279        -1.50151
H         -6.61398         8.57923        -1.96534
O         -5.41968        -3.43375        -1.68715
H         -5.47655        -2.49498        -1.98438
O          1.84159         7.41130         1.59660
H          2.44695         6.87566         2.15647
O         10.46054        -1.73410        -2.23861
H          9.63718        -2.02810        -2.71635
H         12.04223        -1.25693         0.19154
H         12.04205         1.13634         0.32725
H         10.78294         3.24081         0.65984
H          9.54084         5.53254         0.62177
H          8.16657         7.60744         1.20516
H          6.87534         9.90571         0.94834
H          4.75008        11.10457         0.75052
H          2.22775        11.09303         0.55584
H         -0.14085        11.13957         0.06561
H         -2.43989        11.31374        -0.31933
H         -5.02187        11.32008         0.54438
H         -7.13484        10.06340         0.60214
H         -8.38386         7.77293        -0.39029
H         -9.36232         5.41530         1.26990
H        -10.77385         3.53989        -0.70581
H        -12.00538         1.27703        -1.10712
H        -11.85036        -1.09467        -1.65111
H        -10.42894        -3.31285        -1.82064
H         -9.15955        -5.37152        -1.88395
H         -8.01343        -7.44992        -1.79013
H         -7.04191        -9.38299         0.14718
H         -5.05088       -10.71173         0.71256
H         -2.36133       -11.25037        -0.25205
H         -0.01438       -11.38372         0.63651
H          2.57709       -11.16040         1.21306
H          5.03279       -11.14001         1.05899
H          7.07684        -9.85791         1.04818
H          7.81531        -7.38405         1.42428
H          9.54045        -5.27860         0.78913
H         10.81475        -3.42222         0.11559
