         424
 CSIRO Nanostructure Databank - Neutral Graphene Oxide Data Set
C          1.51438         3.50140         0.61153
C          0.35705         4.11800         0.08827
C          1.22239         6.38413         0.54885
C          0.24779         5.48525        -0.05633
C          1.26805         7.84164         0.22438
C          0.08936         8.47632        -0.32987
C          1.12174        10.69476        -0.25611
C          0.02418         9.82112        -0.55736
C          1.08972        12.05411        -0.54821
C         -0.13098        12.71256        -0.98546
C          1.11413        14.73481        -1.74676
C         -0.14772        13.97407        -1.46231
C          1.01004        16.22465        -1.40072
C         -0.15791        17.02235        -1.78781
C          1.06498        19.14488        -1.47217
C         -0.14151        18.38280        -1.69443
C          1.05314        20.58022        -1.38333
C         -0.15395        21.31670        -1.21895
C          1.06647        23.43243        -1.04942
C         -0.14891        22.68332        -1.05281
C          1.08608        24.84403        -0.86848
C         -0.10007        25.60178        -0.52090
C          1.10113        27.75217        -0.89742
C         -0.09639        26.95428        -0.44392
C          1.17254        29.15801        -0.33921
C          0.01457        29.94362        -0.30610
C          1.26174        31.88092         0.51763
C          0.05240        31.27131         0.10952
C          1.30276        33.28445         0.89929
C          0.14065        34.09341         0.95913
C          1.43910        36.03321         1.66217
C          0.20034        35.42296         1.34466
C          1.51884        37.42263         2.07581
C          3.91167         3.67741         1.16848
C          2.64920         4.25889         0.94614
C          3.73846         6.53568         1.10814
C          2.52032         5.72351         1.06052
C          3.59424         8.03581         1.22799
C          2.36825         8.60013         0.52855
C          3.60251        10.77627         0.19029
C          2.28376        10.11071         0.51793
C          3.54713        12.23399         0.03225
C          2.30141        12.87179        -0.49621
C          3.64423        14.79580        -1.40699
C          2.33179        14.11448        -1.07283
C          3.59143        16.31002        -1.45888
C          2.32280        17.01135        -1.29316
C          3.53524        19.15963        -1.64333
C          2.30465        18.46646        -1.47560
C          3.52453        20.60160        -1.61647
C          2.28756        21.29774        -1.40281
C          3.53852        23.41474        -1.25719
C          2.29529        22.71499        -1.25033
C          3.55990        24.82070        -1.04085
C          2.33336        25.54906        -0.89525
C          3.59527        27.61543        -0.47170
C          2.36822        26.95530        -0.72488
C          3.61124        28.96567        -0.04025
C          2.41178        29.73318         0.05443
C          3.70017        31.69314         0.92848
C          2.45252        31.09898         0.50812
C          3.72482        33.05025         1.30202
C          2.55394        33.87857         1.23755
C          3.90424        35.92297         1.84451
C          2.61120        35.26104         1.58247
C          3.94346        37.29256         2.40750
C          2.69359        38.01303         2.44273
C          6.30301         3.88883         1.69363
C          5.06562         4.46928         1.38138
C          6.16768         6.71827         1.38026
C          4.95995         5.92157         1.28182
C          6.09627         8.12615         1.03812
C          4.87237         8.76297         0.85518
C          6.07092        10.83399         0.12343
C          4.82138        10.14508         0.43359
C          6.06781        12.17103        -0.27995
C          4.87065        12.98990        -0.09278
C          6.06749        14.98479        -1.23254
C          4.83975        14.45934        -0.50267
C          6.04170        16.27864        -1.65464
C          4.77050        17.01259        -1.60510
C          6.01337        19.13330        -1.90887
C          4.76907        18.44640        -1.73532
C          5.96492        20.60759        -2.22519
C          4.73335        21.31463        -1.72407
C          6.00503        23.42682        -1.54588
C          4.76027        22.71063        -1.51088
C          6.02274        24.81408        -1.27090
C          4.80388        25.51540        -0.99428
C          6.08292        27.57536        -0.59404
C          4.83379        26.88904        -0.63914
C          6.13375        28.94546        -0.11269
C          4.88895        29.47463         0.56093
C          6.17858        31.53885         1.05371
C          4.93243        30.95157         0.82834
C          6.24813        32.81883         1.75949
C          4.94827        33.59424         1.89694
C          6.29321        35.56016         2.83864
C          5.11339        35.06771         2.01662
C          6.38339        37.07385         2.82375
C          5.14909        37.83057         2.80031
C          8.62496         4.13440         2.46110
C          7.45674         4.68582         1.96497
C          8.59463         6.89825         1.74308
C          7.37414         6.12318         1.72229
C          8.57273         8.23722         1.22456
C          7.34042         8.83918         0.84558
C          8.57032        10.82555         0.10327
C          7.32969        10.14423         0.30105
C          8.58635        12.05704        -0.71723
C          7.24458        12.72735        -0.96854
C          8.58407        14.85982        -1.65048
C          7.25836        14.14684        -1.44235
C          8.56646        16.32916        -1.76219
C          7.26677        16.96585        -2.21745
C          8.48695        19.17475        -1.99521
C          7.23523        18.46125        -1.98905
C          8.47376        20.61692        -1.97292
C          7.25391        21.32683        -1.93029
C          8.47757        23.45881        -1.79070
C          7.24254        22.72950        -1.76500
C          8.47733        24.86816        -1.63158
C          7.25453        25.54134        -1.31717
C          8.46370        27.76545        -1.32653
C          7.25528        26.92040        -1.01312
C          8.61851        28.88434        -0.28104
C          7.32939        29.62103        -0.00279
C          8.64303        31.59837         0.75643
C          7.40999        30.92811         0.61134
C          8.70830        32.91257         1.39053
C          7.52192        33.55124         1.86065
C          8.79256        35.52678         2.52320
C          7.56468        34.86940         2.37085
C          8.84657        36.91630         2.95602
C          7.60396        37.67485         2.96731
C         11.07898         4.27099         2.83166
C          9.77065         4.99798         2.89761
C         11.02880         7.01953         2.00108
C          9.79327         6.32145         2.17038
C         11.02461         8.36282         1.52820
C          9.78333         8.98297         1.15207
C         10.98654        11.16707         0.63729
C          9.76275        10.28652         0.58846
C         11.09926        12.11222        -0.55966
C          9.82060        12.86893        -0.81759
C         11.05598        14.97240        -1.24687
C          9.83320        14.18205        -1.23199
C         11.02502        16.36009        -1.54128
C          9.74862        17.04214        -1.74715
C         10.96135        19.20884        -1.93751
C          9.72470        18.48872        -1.90952
C         10.95104        20.63193        -2.03926
C          9.71118        21.33597        -1.99287
C         10.93300        23.48185        -2.14512
C          9.70615        22.75533        -1.97242
C         10.90987        24.90075        -2.03546
C          9.72052        25.59654        -1.70435
C         10.99761        27.66848        -1.23256
C          9.75681        26.99062        -1.42730
C         11.05832        29.00443        -0.74088
C          9.78488        29.80368        -0.62435
C         11.10412        31.60226         0.46392
C          9.87064        30.99664         0.29400
C         11.16285        33.05372         0.85141
C          9.93964        33.56342         1.55120
C         11.25027        35.40637         2.53840
C         10.01575        34.84296         2.19340
C         11.32299        36.68627         3.32532
C         10.05229        37.48883         3.26030
C         13.53806         4.28633         2.75037
C         12.28088         4.94189         2.60556
C         13.48980         7.02073         1.99158
C         12.26825         6.34564         2.23258
C         13.47198         8.36985         1.54110
C         12.26546         9.05057         1.33674
C         13.45962        11.10136         0.65895
C         12.28224        10.41515         0.83103
C         13.49395        12.43338         0.08186
C         12.31576        13.00074        -0.42537
C         13.51482        15.07896        -0.94352
C         12.29308        14.34272        -0.88780
C         13.50252        16.43829        -1.40418
C         12.23976        17.10004        -1.64055
C         13.43001        19.24725        -2.04892
C         12.21285        18.51273        -1.89217
C         13.41981        20.63699        -2.20761
C         12.17184        21.36305        -2.20104
C         13.36649        23.47348        -2.93805
C         12.14938        22.76976        -2.34826
C         13.42318        24.98571        -2.60111
C         12.14711        25.68484        -2.19658
C         13.46771        27.61380        -1.30824
C         12.22741        26.99527        -1.52691
C         13.51990        28.92855        -0.74175
C         12.29452        29.61634        -0.46376
C         13.57755        31.55783         0.36417
C         12.33470        30.94590         0.09681
C         13.62398        32.83559         1.06312
C         12.46231        33.45959         1.47026
C         13.74547        35.44792         2.21055
C         12.51799        34.60641         2.43996
C         13.68968        36.88782         2.45455
C         12.52947        37.48627         2.89372
C         16.01845         4.34316         2.85747
C         14.75483         4.98383         2.61754
C         15.97525         7.08398         2.13971
C         14.74290         6.35589         2.22734
C         15.99225         8.43119         1.70581
C         14.75492         9.02036         1.08338
C         15.99306        11.18084         0.84486
C         14.70743        10.52692         1.28033
C         15.97690        12.49213         0.29331
C         14.73985        13.12960        -0.04381
C         15.98285        15.13860        -0.78148
C         14.74184        14.44642        -0.59492
C         15.96128        16.48472        -1.28320
C         14.72213        17.11928        -1.57733
C         15.97268        19.24539        -2.02292
C         14.71068        18.46919        -2.25915
C         15.95894        20.74419        -1.91767
C         14.65649        21.40066        -2.31377
C         15.91009        23.47764        -2.78578
C         14.64552        22.73899        -2.59564
C         15.93563        24.98273        -2.55251
C         14.67955        25.64778        -2.19174
C         15.97027        27.56867        -1.33797
C         14.70504        26.91811        -1.62316
C         15.99683        28.87309        -0.78484
C         14.76861        29.56326        -0.48848
C         16.05925        31.52320         0.31193
C         14.80170        30.87669         0.07143
C         16.08698        32.86412         0.85162
C         14.90528        33.47026         1.30538
C         16.20883        35.56045         1.96757
C         14.90277        34.83259         1.79263
C         16.07702        37.06168         1.83784
C         14.86004        37.66461         2.14677
C         18.49640         4.40098         3.01857
C         17.20670         5.04958         2.81699
C         18.39593         7.21866         2.51176
C         17.20075         6.45783         2.50691
C         18.39030         8.56227         2.12052
C         17.18438         9.17176         1.68265
C         18.44423        11.19510         0.90601
C         17.19029        10.53206         1.14631
C         18.43591        12.48271         0.28240
C         17.22456        13.14139         0.00597
C         18.44930        15.19498        -0.69290
C         17.21452        14.49133        -0.51615
C         18.42844        16.56320        -1.12156
C         17.19343        17.18317        -1.44912
C         18.43323        19.26729        -2.02945
C         17.17425        18.57887        -1.83637
C         18.35683        20.51611        -2.87938
C         17.18596        21.39300        -2.51558
C         18.41355        23.52295        -2.81527
C         17.19692        22.75715        -2.71265
C         18.42875        24.88698        -2.42737
C         17.21436        25.60024        -2.18423
C         18.45722        27.54948        -1.34929
C         17.20629        26.89755        -1.62984
C         18.46801        28.83163        -0.76613
C         17.25130        29.51678        -0.50663
C         18.52908        31.57712         0.08696
C         17.27029        30.86041         0.00016
C         18.53080        32.97751         0.37236
C         17.32625        33.61436         0.82020
C         18.51305        35.76191         0.97975
C         17.35152        34.97087         1.18450
C         18.45810        37.18796         1.19166
C         17.23473        37.80941         1.55447
C         19.65383         5.09220         3.01532
C         20.82970         7.13300         2.09408
C         19.70460         6.59702         2.95426
C         20.81716         8.41321         1.70400
C         19.69315         9.33740         2.15669
C         20.84962        11.41086         1.31738
C         19.65318        10.63247         1.37760
C         20.90328        12.59868         0.65006
C         19.74583        13.06262        -0.19383
C         20.87167        15.29129        -0.54738
C         19.69486        14.55580        -0.43551
C         20.85612        16.64323        -0.91457
C         19.65952        17.29324        -1.23238
C         20.88129        19.33898        -2.08506
C         19.63935        18.65204        -1.75778
C         20.90892        20.55066        -2.68417
C         19.67502        21.27491        -3.03846
C         20.92512        23.55473        -2.83975
C         19.67861        22.80754        -3.06455
C         20.91279        24.84888        -2.44595
C         19.68176        25.57218        -2.19988
C         20.92085        27.64021        -1.57313
C         19.68740        26.88360        -1.70491
C         20.96308        28.84094        -0.96400
C         19.76812        29.40703        -0.24545
C         20.94339        31.66026        -0.17695
C         19.75206        30.91744        -0.15799
C         20.93871        33.03749         0.00457
C         19.74245        33.72492         0.29476
C         20.85619        35.97243         0.32024
C         19.72216        35.15808         0.52246
C         20.80024        37.35206         0.54123
C         19.62092        37.96001         0.96148
O          1.46685         6.16379         1.99003
O          7.83794        11.83774        -1.96379
O          5.46569        32.82443         3.02904
O         12.66452        25.75599        -3.59957
O          1.55584        16.54526        -0.10148
O          4.20028        12.86113         1.20402
O          4.90775        35.73586         0.74457
O         15.88906        24.41114        -3.91123
O         19.72191        21.99042        -4.30968
O          7.84566        14.25030        -2.78484
O         19.97490         7.05337         4.32952
H         19.23292         6.74165         4.89026
O         11.52013        36.32027         4.74216
H         12.03615        35.47508         4.74590
O         16.57126        35.32413         3.38342
H         17.40982        35.80626         3.54886
O          4.74906        15.25081         0.69908
H          4.26736        14.70627         1.36710
O          3.98530        14.31350        -2.73781
H          3.22349        14.54251        -3.32405
O          1.32386        14.68810        -3.20395
H          1.09191        13.78481        -3.50834
O         14.71482        18.17031        -3.71257
H         15.62879        17.91274        -3.96139
O          8.16044        28.30318        -2.64192
H          8.74682        29.08398        -2.79423
O          4.92348        28.85198         1.91492
H          5.55902        29.36805         2.45696
O         14.58879        10.75536         2.71802
H         14.59486        11.72359         2.86972
O         19.97825        12.47616        -1.53692
H         19.94287        11.50112        -1.43441
O         18.01391        20.00685        -4.21499
H         18.29870        20.70509        -4.85092
O          9.54149         5.32534         4.33458
H         10.26069         5.93390         4.60826
O          0.93291        27.93307        -2.35739
H          0.92847        27.03804        -2.75941
O          8.98803        28.25628         0.97614
H          8.23943        27.69205         1.26418
O          2.00611        10.49426         1.90851
H          2.58915         9.93031         2.48037
O          6.05782        35.18611         4.22077
H          5.95560        34.20329         4.23795
O          5.83343        20.65304        -3.70216
H          6.53756        20.07896        -4.07501
O         19.87722        28.94570         1.15215
H         19.88040        27.96518         1.13305
O         10.82095        12.01681         1.81473
H         10.81544        11.43786         2.60577
O         14.85474         8.78408        -0.35279
H         14.81486         7.81659        -0.50323
O         11.14552        33.76567        -0.46323
H         10.26751        33.59520        -0.86842
O         16.08403        20.99313        -0.45489
H         16.03133        21.96227        -0.31329
O          3.35748         8.27658         2.67018
H          2.62484         7.66300         2.92088
O          9.54923        30.41054        -1.94536
H         10.37041        30.88257        -2.20120
O         13.19416        23.35732        -4.37392
H         12.79841        24.20800        -4.67957
O         19.97402         9.70777         3.53768
H         20.07084         8.86074         4.04452
O          7.23951        16.79557        -3.67575
H          7.35175        15.82510        -3.83162
O         11.30969        11.26310        -1.72422
H         11.22975        11.81812        -2.52797
O         12.70544        33.99969         3.79985
H         13.64793        33.72994         3.86781
H          1.58568         2.40442         0.60734
H         -0.43829         3.47564        -0.31696
H         -0.56260         5.89722        -0.67313
H         -0.78110         7.85361        -0.57597
H         -0.88306        10.23240        -1.02208
H         -1.08659        12.18575        -0.85199
H         -1.10517        14.44081        -1.73722
H         -1.05824        16.51090        -2.15808
H         -1.06459        18.93128        -1.93087
H         -1.11532        20.78534        -1.19938
H         -1.10794        23.20233        -0.92084
H         -1.01926        25.05671        -0.26177
H         -1.01503        27.48368        -0.15152
H         -0.94258        29.51888        -0.63914
H         -0.88027        31.85026         0.09524
H         -0.83987        33.66596         0.71020
H         -0.72177        36.01956         1.39595
H          0.58244        37.99840         2.11634
H          4.00520         2.58114         1.17031
H          2.70145        39.05903         2.78345
H          6.37086         2.79668         1.80910
H          5.18969        38.88875         3.10401
H          8.68637         3.04917         2.63412
H          7.66977        38.77058         3.05596
H         11.10100         3.21067         3.12622
H         10.09178        38.54260         3.57703
H         13.55398         3.22291         3.03191
H         12.50260        38.58133         3.00965
H         16.03031         3.26878         3.09566
H         14.79144        38.76263         2.18693
H         18.50616         3.30661         3.13905
H         17.18561        38.90877         1.58166
H         20.60920         4.56471         3.15976
H         21.65315         6.45839         1.81326
H         21.63948         8.82378         1.09760
H         21.73459        11.04814         1.86062
H         21.85012        13.15557         0.62521
H         21.84498        14.81629        -0.36648
H         21.81557        17.17304        -0.97525
H         21.83680        18.84666        -1.86099
H         21.87404        21.01111        -2.93717
H         21.88172        23.05484        -3.04347
H         21.87314        25.36012        -2.29697
H         21.84092        27.24219        -2.02294
H         21.92777        29.36176        -0.89411
H         21.90845        31.16307        -0.33900
H         21.89318        33.57875        -0.03829
H         21.79921        35.53214        -0.03028
H         21.69708        37.96328         0.36791
H         19.58277        39.04796         1.11473
