         324
 CSIRO Nanostructure Databank - Neutral Graphene Oxide Data Set
C          1.90508         2.12763        -2.60275
C          1.74050         3.50970        -2.27219
C          2.96722         1.40054        -2.15280
C          2.64102         4.20239        -1.48491
C          1.74345         6.45785        -2.12908
C          1.70695         7.84414        -1.99121
C          2.63980         5.65940        -1.39406
C          2.56477         8.51653        -1.09928
C          1.55276        10.76721        -1.52433
C          1.47083        12.14271        -1.22352
C          2.54872         9.97273        -0.95424
C          2.45468        12.78974        -0.49266
C          1.13858        14.97629        -0.55979
C          1.19098        16.29348        -0.87225
C          2.33609        14.22792        -0.03940
C          2.43246        17.03060        -0.86051
C          2.46682        18.41784        -1.12426
C          3.85221         1.95009        -1.12512
C          3.66602         3.44420        -0.73834
C          5.17741         1.38516        -0.91235
C          4.80949         4.16249        -0.12959
C          3.53974         6.30379        -0.49260
C          3.48146         7.72699        -0.34245
C          4.50424         5.53338         0.25084
C          4.38150         8.38476         0.56078
C          3.54328        10.62162        -0.13059
C          3.62662        12.07331        -0.06758
C          4.33831         9.80531         0.67758
C          4.82823        12.79576         0.19248
C          3.64098        14.94619        -0.28037
C          3.65406        16.32877        -0.60019
C          4.84616        14.22860        -0.11059
C          4.88985        17.03593        -0.66346
C          3.66074        19.12029        -1.11940
C          4.90181        18.45431        -0.88807
C          6.20827         2.11193        -0.32725
C          6.06331         3.53112         0.00529
C          7.45749         1.44886        -0.11224
C          7.29804         4.21786         0.37036
C          5.17385         6.18696         1.30787
C          5.23267         7.59133         1.34932
C          7.42541         5.69882         0.30404
C          7.34790         8.66350         1.36305
C          6.16866        10.87805         1.09648
C          6.09847        12.14165         0.46630
C          7.32937        10.05619         1.03338
C          7.34141        12.75774         0.10158
C          6.07463        14.91973        -0.29288
C          6.11053        16.32454        -0.50609
C          7.32969        14.15800        -0.33934
C          7.34978        17.05899        -0.48384
C          6.12076        19.15714        -0.85063
C          7.34852        18.49023        -0.60224
C          8.57661         2.10328         0.40630
C          8.47707         3.52989         0.61394
C          9.82478         1.42996         0.57344
C          9.65675         4.23227         1.18737
C          8.49447         6.39186         1.08699
C          8.47782         7.85015         1.11639
C          9.70104         5.71820         1.17977
C          9.70023         8.46865         0.69948
C          8.48814        10.63213         0.41683
C          8.56761        12.05347         0.14016
C          9.56106         9.76468         0.15903
C          9.83849        12.77481         0.17791
C          8.64500        14.92962        -0.28421
C          8.57580        16.40236        -0.21948
C          9.84977        14.21877         0.18539
C          9.73609        17.13820         0.04575
C          8.56952        19.20415        -0.48923
C          9.77460        18.55650        -0.15356
C         11.00069         2.06364         1.00074
C         10.91559         3.46869         1.48662
C         12.24055         1.39949         0.95413
C         12.18683         4.26062         1.85664
C         10.97175         6.41343         1.17045
C         10.97774         7.80539         0.81721
C         12.18636         5.68930         1.28990
C         12.23074         8.52518         0.82545
C         11.31005        10.78190         0.26347
C         11.06312        12.13936         0.52172
C         12.33383         9.97579         0.81199
C         12.16489        12.87814         1.18179
C         10.99118        14.95583         0.50572
C         10.93213        16.43244         0.51856
C         12.22736        14.33140         0.92627
C         12.23092        17.20353         0.54227
C         11.03077        19.25833        -0.12402
C         12.25063        18.61758         0.10091
C         13.47909         2.04485         1.19605
C         13.49269         3.46758         1.61305
C         14.69241         1.39030         0.95490
C         14.77545         4.21160         1.30770
C         13.39850         6.39773         1.17882
C         13.42187         7.80331         1.04877
C         14.66305         5.64934         0.94844
C         14.74193         8.49788         1.34775
C         13.52232        10.66469         1.19825
C         13.44787        12.11612         1.46928
C         14.75240        10.00456         1.24578
C         14.73335        12.87292         1.58201
C         13.43521        15.01046         0.94478
C         13.47257        16.39247         0.42307
C         14.72226        14.38653         1.32071
C         14.77705        17.11529         0.28320
C         13.51274        19.26763         0.03800
C         14.74145        18.59759         0.22359
C         15.95238         2.07086         0.82521
C         15.96963         3.49595         0.82214
C         17.15995         1.37201         0.60495
C         17.17404         4.21413         0.57360
C         15.92338         6.36846         0.58341
C         15.92586         7.86470         0.64218
C         17.20235         5.63717         0.61665
C         17.23394         8.56896         0.80130
C         15.98395        10.72555         1.28171
C         16.00102        12.15294         1.37564
C         17.23906        10.00613         1.17879
C         17.20335        12.90155         1.36049
C         16.01376        15.04516         0.99267
C         16.02827        16.41266         0.64055
C         17.23497        14.32235         1.16650
C         17.23848        17.14143         0.57362
C         15.96905        19.26933         0.28142
C         17.20515        18.57408         0.39971
C         18.39235         2.04709         0.36774
C         18.39333         3.49748         0.34351
C         19.60064         1.33576         0.25713
C         19.60005         4.22514         0.23380
C         18.43092         6.35095         0.68022
C         18.44752         7.75397         0.91572
C         19.65512         5.61371         0.50952
C         19.69093         8.40929         1.31770
C         18.43350        10.67754         1.26751
C         18.46052        12.13724         1.48342
C         19.71142         9.92813         1.39743
C         19.76520        12.87829         1.30024
C         18.50668        15.02460         0.97888
C         18.49378        16.46456         0.69061
C         19.71155        14.32089         1.02339
C         19.67677        17.19647         0.45287
C         18.41899        19.28896         0.38627
C         19.66708        18.64009         0.34789
C         20.81891         1.98535        -0.21558
C         20.80352         3.52855        -0.24470
C         22.14148         1.32222        -0.13636
C         22.10930         4.26061        -0.24816
C         20.93837         6.27476         0.61523
C         20.98126         7.65565         1.16472
C         22.12083         5.61947         0.33836
C         22.28776         8.45552         1.00336
C         20.95489        10.61313         0.91438
C         20.95404        12.11351         0.78676
C         22.24698         9.91097         0.85593
C         22.24970        12.79725         0.56928
C         21.02120        14.97724         0.86106
C         20.96159        16.47203         0.51749
C         22.24476        14.23131         0.48833
C         22.10349        16.91279        -0.25421
C         20.86247        19.46445         0.38497
C         22.07400        19.06110        -0.18529
C         23.32563         1.97870        -0.24648
C         23.38919         3.45592        -0.35386
C         24.63973         1.22614        -0.05863
C         24.69007         4.11656        -0.10561
C         23.42756         6.27689         0.57646
C         23.47570         7.74507         0.54420
C         24.70937         5.54017         0.27727
C         24.66717         8.44656         0.31103
C         23.41878        10.60338         0.49685
C         23.39834        12.05008         0.33942
C         24.64641         9.87331         0.33721
C         24.60134        12.73061        -0.27505
C         23.42559        14.93302         0.13835
C         23.34793        16.33598        -0.18375
C         24.65306        14.23190        -0.11008
C         24.51042        17.14660        -0.63572
C         23.41521        19.42083         0.04584
C         24.55092        18.62131        -0.33208
C         25.88342         1.99623        -0.47724
C         25.87145         3.45370        -0.34634
C         27.03388         1.34774        -0.78332
C         27.11726         4.19902        -0.41992
C         25.91325         6.32927        -0.02902
C         25.90886         7.72740         0.05633
C         27.10291         5.59299        -0.32842
C         27.11466         8.48974        -0.20553
C         25.92648        10.59315         0.26038
C         25.91622        12.08265         0.09039
C         27.13980         9.85459        -0.12421
C         27.15268        12.77858        -0.36380
C         25.84878        14.91024        -0.38494
C         25.83287        16.37965        -0.65576
C         27.10091        14.21247        -0.48175
C         27.06841        17.13548        -0.46885
C         25.80297        19.23542        -0.29837
C         27.05294        18.53886        -0.40029
C         28.28864         2.06735        -1.21612
C         28.34515         3.51411        -0.75837
C         29.57319         1.36392        -0.82869
C         29.54992         4.17308        -0.81581
C         28.36614         6.34609        -0.33037
C         28.32307         7.78591        -0.80553
C         29.65591         5.59629        -0.47205
C         29.63954         8.50295        -0.54350
C         28.30976        10.57201        -0.77456
C         28.31703        12.07199        -0.58332
C         29.62476         9.86725        -0.46908
C         29.54165        12.79604        -0.93289
C         28.33065        14.92876        -0.65797
C         28.32551        16.38979        -0.37749
C         29.53359        14.26414        -0.86742
C         29.60206        17.17743        -0.45427
C         28.28227        19.27732        -0.37797
C         29.52881        18.65887        -0.48686
C         30.73900         2.02090        -0.89385
C         30.76522         3.46119        -1.37639
C         32.04433         4.20213        -1.07725
C         30.90324         6.35595        -0.73444
C         30.89088         7.74197        -0.63143
C         32.09593         5.54033        -0.87757
C         32.10731         8.53399        -0.73523
C         30.88397        10.65108        -0.16538
C         30.89033        12.06001        -0.76095
C         32.11771         9.87127        -0.55764
C         32.07114        12.91797        -0.53198
C         30.81606        14.98137        -1.09054
C         30.85132        16.51967        -0.96109
C         32.06108        14.23675        -0.81591
C         32.07185        17.31183        -0.78191
C         30.75463        19.35992        -0.49683
C         31.98676        18.67132        -0.55553
O         15.03310         5.83341        -0.47283
O         28.07772         7.78924        -2.20519
O         21.84210         7.84843         2.30290
O         26.05279        11.55290         1.42655
O          5.02678        10.39580         1.75878
O         30.30796        12.21507        -2.05762
O         29.14070        16.66174         0.84259
O         19.71752         9.14109         2.60941
O         19.31657        12.51144         2.64030
O         25.10086        16.73712        -1.89830
O         16.48455         8.47335        -0.53252
O         14.10584        16.49434        -0.89696
O         14.45074         3.79118         2.66518
O         22.78572         4.10441        -1.54259
O          6.27265         8.13425         2.14047
O         12.48406        12.42777         2.53755
O         21.30307        16.01204         1.86733
O         10.53889        10.18793        -0.74727
O          9.90407         3.64824         2.53814
O         11.49691        16.99038         1.77544
O         30.77724        15.85972        -2.26708
O          6.83186         6.35864        -0.55056
O          3.15128         2.36694         0.09937
O         14.74603        13.82020         2.67889
O         21.92823        17.98926        -1.10846
O         24.22562         5.69403         1.68427
O          8.12648        14.40342        -1.55204
O         20.62184        11.27934        -0.37810
O         29.13529         6.01686         0.86460
O         20.58449         2.75896        -1.45078
O          5.93051         5.50247         2.20803
H          6.35928         6.16405         2.79651
O         30.94005        10.87318         1.28065
H         30.94802         9.99533         1.71791
O          2.15373        14.15968         1.42240
H          2.13789        15.08053         1.75887
O         30.65614         3.43916        -2.82871
H         29.84104         2.91819        -3.04692
O         24.77219         0.88559         1.33655
H         24.96929         1.70506         1.83601
O         24.48739        12.50329        -1.71997
H         23.68941        12.97132        -2.04484
O         28.08000        10.44105        -2.20821
H         28.08619         9.45207        -2.42752
O         15.01441         8.18939         2.75701
H         14.30976         8.59512         3.30561
O         12.15073         4.48251         3.28465
H         11.20806         4.40416         3.56656
O         28.25203         2.08007        -2.68991
H         27.45810         2.58880        -2.96101
H          1.21330         1.68811        -3.33538
H          0.92949         4.05008        -2.77966
H          3.18351         0.40268        -2.56128
H          1.04384         5.98921        -2.83434
H          0.99405         8.41149        -2.60472
H          0.75987        10.31719        -2.13629
H          0.60121        12.70511        -1.59149
H          0.16450        14.46576        -0.53925
H          0.27313        16.83145        -1.15507
H          1.52234        18.94491        -1.32344
H          5.38083         0.36674        -1.27780
H          3.66379        20.20384        -1.30561
H          7.52657         0.37934        -0.36169
H          6.11903        20.24920        -0.98488
H          9.88036         0.37073         0.28005
H          8.56671        20.29271        -0.64791
H         12.25744         0.35439         0.60978
H         11.02901        20.32845        -0.38013
H         14.66847         0.31149         0.73816
H         13.53298        20.35367        -0.13940
H         17.15248         0.27206         0.61678
H         15.98821        20.36653         0.20399
H         19.62213         0.26138         0.49441
H         18.38664        20.38695         0.33211
H         22.14802         0.23531         0.04339
H         20.78986        20.43932         0.89030
H         24.59044         0.25728        -0.61629
H         23.62440        20.36842         0.56591
H         27.04117         0.24704        -0.82961
H         25.84620        20.32182        -0.12727
H         29.52850         0.30747        -0.52249
H         28.23211        20.37430        -0.31028
H         31.68670         1.51747        -0.64742
H         32.98409         3.63440        -1.15957
H         33.08020         6.02385        -0.78442
H         33.05117         8.02227        -0.97323
H         33.06921        10.41819        -0.63491
H         32.99729        12.44591        -0.17233
H         32.99339        14.81256        -0.72635
H         33.05090        16.85229        -0.97549
H         30.75009        20.45751        -0.44113
H         32.91574        19.25599        -0.49251
