         280
 CSIRO Nanostructure Databank - Neutral Graphene Oxide Data Set
C         30.32731        31.55311        -0.25798
C         30.31757        32.84398        -0.07290
C         30.25546        36.07449         0.26381
C         30.28041        37.30821         0.30642
C         30.37784        40.51261         0.48352
C         30.33518        41.73804         0.71180
C         32.89278        28.93241        -1.04051
C         31.76399        29.45057        -0.83744
C         32.67136        31.38179         0.36334
C         31.38043        30.70375        -0.30605
C         32.64187        32.92940         0.25397
C         31.33467        33.70400         0.21187
C         32.61491        35.93660         0.58609
C         31.41703        35.17872        -0.10474
C         32.67943        37.42598         0.17806
C         31.40207        38.18031        -0.22210
C         32.67348        40.31137         0.10589
C         31.46200        39.62813         0.15836
C         32.67545        41.83803         0.11579
C         31.58885        42.48093         1.12324
C         32.89506        44.42033         0.64543
C         31.76714        43.96770         0.90846
C         35.78465        27.92191        -1.97750
C         35.47028        29.19384        -1.37792
C         34.09285        29.82813        -1.38347
C         35.19461        31.47322         0.22725
C         33.96990        30.94334        -0.35208
C         35.10224        32.81096         0.91661
C         33.93245        33.68489         0.46414
C         35.08391        36.11788         0.94878
C         33.97957        35.27712         0.30058
C         35.12076        37.47873         0.58557
C         33.86896        38.13602         0.22851
C         35.16127        40.21971        -0.12372
C         33.91145        39.57646         0.03210
C         35.14258        41.68411        -0.54795
C         34.10877        42.39247         0.36205
C         35.36114        44.55334         0.01256
C         34.17773        43.92910         0.25406
C         35.67725        45.95292         0.01671
C         38.17245        28.05557        -2.15146
C         36.85893        27.42834        -2.34578
C         38.00498        29.40279        -1.44699
C         36.63181        29.84919        -1.03197
C         37.70764        31.55551         0.53257
C         36.55107        31.23093        -0.43364
C         37.62188        33.00037         1.00576
C         36.38248        33.42142         1.33453
C         37.52968        36.17486         1.33245
C         36.25550        35.61991         1.51428
C         37.59277        37.49590         0.88253
C         36.36203        38.18254         0.60667
C         37.63924        40.10849        -0.30822
C         36.36668        39.52834         0.10852
C         37.65779        41.58395        -0.76377
C         36.47333        42.38189        -0.54741
C         37.81489        44.44351        -0.57658
C         36.60064        43.79306        -0.33129
C         38.03700        45.97773        -0.59015
C         36.71671        46.57960        -0.19887
C         40.50345        25.13835        -1.83451
C         39.56920        25.85927        -2.21594
C         40.58385        27.81653        -1.14298
C         39.46932        27.30585        -2.02642
C         40.52849        29.20782        -0.68986
C         39.26316        30.01662        -0.80977
C         40.17287        31.68720         0.90383
C         39.08400        31.17984         0.06466
C         40.06243        33.06254         1.58645
C         38.86491        33.88284         1.02937
C         40.04625        36.06123         1.43298
C         38.73545        35.34856         1.73987
C         40.17928        37.40087         0.97416
C         38.90741        38.18607         0.86165
C         40.21275        40.06144        -0.31968
C         38.93516        39.57180         0.23220
C         40.15488        41.35192        -1.13830
C         39.00914        42.22469        -0.56731
C         40.35948        44.24824        -0.59561
C         39.03296        43.67389        -1.06512
C         40.52456        45.63004        -0.02336
C         39.15471        46.23779         0.38559
C         40.27670        47.21739         2.36251
C         39.30997        46.90094         1.53762
C         42.90131        24.89599        -0.88192
C         41.69775        25.53736        -1.17070
C         42.75184        27.48446         0.06498
C         41.62782        26.95285        -0.76059
C         42.77315        28.96864         0.38975
C         41.60519        29.77525        -0.01961
C         42.76850        31.75931         1.20993
C         41.50726        31.03296         0.77828
C         42.72167        33.20515         1.68130
C         41.36194        33.87964         1.60827
C         43.03036        36.22833         1.37083
C         41.16852        35.23176         1.81184
C         42.72150        37.34067         0.42416
C         41.39423        38.07363         0.57268
C         42.62696        39.76824        -0.94123
C         41.38571        39.34893        -0.11112
C         42.66788        41.30288        -1.26204
C         41.46031        42.09276        -1.03021
C         42.83719        44.12420        -0.43549
C         41.51979        43.46776        -0.68032
C         42.90493        45.14749         0.48743
C         41.54547        45.47157         1.14912
C         42.81636        46.80509         2.72668
C         41.50712        46.64078         2.21415
C         43.90237        25.49366        -0.36904
C         45.24737        27.48308         0.46610
C         44.07829        26.78364         0.09906
C         45.25446        28.95545         0.61505
C         44.06621        29.65471         0.61064
C         45.32794        31.73215         1.34272
C         44.06496        31.18492         0.62590
C         45.33963        33.25120         1.28772
C         44.10601        34.00472         1.82654
C         45.31114        36.07888         0.84643
C         44.08918        35.38313         1.17810
C         45.23613        37.59971         0.93409
C         43.98188        38.18091         0.32782
C         45.22971        39.93335        -0.92944
C         43.96254        39.35142        -0.32970
C         45.25002        41.47560        -0.87902
C         43.94694        42.06829        -1.39619
C         45.26173        44.21178        -1.25887
C         43.89894        43.59973        -1.39383
C         45.27240        45.93048         0.20668
C         44.14015        45.81047         0.98244
C         43.91396        46.41039         2.26998
C         47.62382        27.61498         0.38314
C         46.54118        26.96020         0.52307
C         47.78391        28.97743         0.24355
C         46.53835        29.69421         0.56342
C         47.86674        31.81382         0.79418
C         46.56063        31.06089         0.75202
C         47.70892        33.29397         0.39952
C         46.47852        33.94707         0.98948
C         47.76322        36.15463         1.18691
C         46.50160        35.40898         0.95810
C         47.76983        37.64013         0.93713
C         46.50977        38.25426         0.44359
C         47.76816        40.08247        -0.62301
C         46.51355        39.39475        -0.30158
C         47.73972        41.30713        -1.33528
C         46.45154        42.06919        -1.67771
C         47.72654        44.37977        -1.16539
C         46.48128        43.59618        -1.37121
C         47.53004        45.44880        -0.24935
C         46.67486        45.96261         0.51440
C         50.28619        29.18552        -0.38348
C         48.92292        29.71289        -0.31446
C         50.19676        32.02248        -0.31445
C         48.92971        31.22666        -0.12506
C         50.19069        33.42051         0.23702
C         49.04196        34.02077         0.64593
C         50.29366        36.17377         1.06290
C         49.04595        35.35750         1.39931
C         50.27929        37.44875         0.60369
C         49.08615        38.39727         0.78229
C         50.23172        40.20034        -0.53661
C         49.03001        39.53890        -0.23058
C         50.22367        41.37114        -1.35943
C         48.95175        41.83999        -1.79259
C         50.25822        44.36255        -1.50873
C         48.89811        44.06636        -1.83566
C         51.36075        29.79703        -0.24414
C         52.64876        32.04574         0.11031
C         51.66825        31.02989         0.47937
C         52.63462        33.27823         0.10595
C         51.49565        34.25175         0.06263
C         52.71693        36.23735         0.96487
C         51.57909        35.29064         1.18169
C         52.67858        37.34917         0.44768
C         51.51357        38.09746        -0.10167
C         52.65024        40.28798        -0.68721
C         51.54047        39.60900         0.07791
C         52.60576        41.42842        -1.18790
C         51.45302        42.17084        -1.55033
C         51.20091        43.53543        -1.70635
O         37.60645        40.49441        -1.71309
O         34.98430        31.59073         1.70373
O         45.11679        45.61171        -1.16926
O         34.77022        42.88406        -2.61977
O         36.18027        34.44666         2.24663
O         43.52911        44.12070        -2.76684
O         42.38275        27.95968         1.39389
O         40.64118        30.69019         1.93387
O         43.35656        41.49050        -2.57973
O         39.14021        28.08723        -3.20193
O         38.76088        30.40812        -2.18984
O         42.19826        35.95309         2.43411
O         38.90350        39.40178         1.68250
O         34.66027        41.58653        -1.97924
O         47.62987        37.12179         2.32197
O         42.75443        32.06944         2.62753
O         48.83988        42.92747        -2.68336
O         48.48052        30.62168        -1.37418
O         33.49529        33.23754        -0.88738
O         42.53274        39.05627        -2.15608
O         39.18454        34.12205        -0.35672
H         38.35736        34.24471        -0.86885
O         48.36678        31.72845         2.14451
H         47.60199        31.78101         2.76038
O         31.89516        42.17578         2.45871
H         31.25508        42.62059         3.05205
O         37.50801        30.70682         1.70143
H         38.18610        30.94378         2.37237
O         51.53628        30.87445         1.83284
H         51.88446        31.65977         2.30193
O         32.41191        35.86237         2.00544
H         31.53045        36.24464         2.21116
O         42.59893        36.70565        -0.89226
H         42.53580        37.46874        -1.55893
O         45.34199        41.89091         0.50198
H         46.02047        41.34369         0.95293
O         38.64466        35.19688         3.16102
H         39.13977        34.38939         3.44272
O         51.61927        34.59371         2.40238
H         51.57963        35.23214         3.14264
O         44.08632        31.63834        -0.74801
H         44.95677        31.40886        -1.14015
O         39.17232        42.26917         0.86908
H         39.87664        42.91522         1.11846
O         31.59387        35.29151        -1.51589
H         30.86404        34.81978        -1.96871
O         46.18356        41.92726        -3.07364
H         45.84137        41.00692        -3.21278
O         41.04788        46.52419        -1.03377
H         41.62704        46.01355        -1.64282
O         41.11471        44.30744         1.89424
H         41.69835        44.20564         2.67613
O         34.29570        35.50662        -1.08300
H         33.53201        35.20493        -1.63166
O         50.56770        32.07083        -1.66656
H         50.06064        31.36199        -2.13221
O         45.33338        31.34089         2.73421
H         44.55312        31.77089         3.16643
O         51.40248        34.90754        -1.19855
H         51.37034        34.20396        -1.88515
O         39.77046        32.79305         2.98138
H         40.41280        32.09583         3.26639
O         51.65429        39.90816         1.44733
H         51.64693        40.87813         1.57439
O         36.62919        32.18206        -1.52216
H         37.34369        31.86736        -2.12787
O         31.30273        38.15151        -1.65423
H         30.57377        38.74831        -1.92503
O         44.30567        34.14288         3.25051
H         43.61362        34.75491         3.58603
O         51.37198        37.81763        -1.48375
H         51.47037        36.84191        -1.60555
O         45.10450        37.90755         2.35491
H         45.92893        37.58326         2.79468
O         49.30349        39.07151         2.04893
H         49.03611        38.44396         2.75825
O         38.45285        46.35980        -1.89776
H         39.27063        46.90677        -1.82942
O         47.48519        33.29225        -1.03673
H         47.24320        34.19904        -1.31890
O         45.20635        39.50641        -2.31522
H         44.23901        39.31774        -2.54135
O         32.61165        30.98631         1.72290
H         32.84230        30.03771         1.79896
O         39.95914        41.02432        -2.52743
H         40.67837        40.40200        -2.78509
O         33.90964        30.31654        -2.70678
H         33.05531        30.79317        -2.75734
O         49.06573        34.99083         2.79841
H         48.60555        35.70280         3.29582
O         32.21004        42.26784        -1.16972
H         32.80121        41.89231        -1.86118
O         42.16327        43.81769        -3.08638
H         42.22084        42.87652        -3.40578
O         34.52721        42.04999         1.69373
H         33.78911        42.24602         2.31813
O         38.99828        43.69927        -2.50580
H         38.81653        44.63186        -2.77377
O         36.14048        42.98282        -2.99778
H         36.29666        42.19412        -3.57431
