         234
 CSIRO Nanostructure Databank - Neutral Graphene Oxide Data Set
C          1.26726         2.01771        -0.38125
C          1.21099         3.41077        -0.29435
C          2.47646         1.31911        -0.28433
C          2.36905         4.18340        -0.04710
C          1.16456         6.38344        -0.13658
C          1.12254         7.69629        -0.46267
C          2.38909         5.60291        -0.05502
C          2.35292         8.49088        -0.82083
C          1.14050        10.65758        -0.13376
C          1.13425        12.03206         0.09320
C          2.33156         9.96204        -0.40134
C          2.32922        12.78464         0.07270
C          1.20550        14.96200         0.61126
C          1.22173        16.37300         0.74335
C          2.33513        14.23341         0.27645
C          2.40672        17.11961         0.65313
C          2.43548        18.54563         0.85049
C          3.68654         2.00021        -0.04427
C          3.62708         3.45516         0.18856
C          4.93018         1.34289        -0.03942
C          4.95486         4.24028         0.06542
C          3.63410         6.30304        -0.17399
C          3.58888         7.78983        -0.25705
C          4.85855         5.65573        -0.26742
C          4.86791         8.53585        -0.31886
C          3.54611        10.68666        -0.40529
C          3.53812        12.07649        -0.18647
C          4.82405         9.97226        -0.85656
C          4.83003        12.78532         0.00058
C          3.58868        15.00925        -0.07566
C          3.64018        16.43948         0.40880
C          4.85471        14.25321         0.24346
C          4.85612        17.12847         0.45552
C          3.61105        19.24056         0.79620
C          4.87180        18.56656         0.61340
C          6.17040         2.02433        -0.10479
C          6.19226         3.48038        -0.22270
C          7.37658         1.29615        -0.18386
C          7.33988         4.14125        -0.58107
C          6.03133         6.36831        -0.91753
C          6.14599         7.80974        -0.45766
C          7.36198         5.60273        -0.86089
C          7.34040         8.52220        -0.46151
C          6.12687        10.66410        -0.48394
C          6.09073        12.12897        -0.45864
C          7.32776         9.98851        -0.38830
C          7.37788        12.88832        -0.28657
C          6.14536        14.99443         0.24084
C          6.12728        16.43291         0.40590
C          7.32429        14.28811         0.19030
C          7.31837        17.15574         0.48202
C          6.07386        19.27085         0.55418
C          7.33347        18.59970         0.45077
C          8.62148         1.93694        -0.35517
C          8.61191         3.39471        -0.63186
C          9.85233         1.26181        -0.33678
C          9.87698         4.16320        -0.32265
C          8.65981         6.37158        -0.68171
C          8.60465         7.84168        -0.45825
C          9.87449         5.64224        -0.21099
C          9.79464         8.54615        -0.25995
C          8.59383        10.70757        -0.24261
C          8.62194        12.11322        -0.14460
C          9.82233         9.97444        -0.17112
C          9.85343        12.83676         0.00874
C          8.59168        14.93451         0.52068
C          8.59607        16.45819         0.66927
C          9.84858        14.24763         0.20207
C          9.86366        17.16269         0.41191
C          8.55181        19.28652         0.36755
C          9.83221        18.62707         0.30754
C         11.09618         1.95023        -0.18784
C         11.02260         3.37840         0.21562
C         12.33006         1.32421        -0.10964
C         12.25868         4.12710         0.65056
C         11.01281         6.31416         0.10515
C         11.05802         7.77152        -0.18977
C         12.15728         5.64976         0.88026
C         12.32449         8.52556         0.00582
C         11.08199        10.68985        -0.08973
C         11.09186        12.14254        -0.05846
C         12.28661         9.99612         0.02444
C         12.30143        12.88911         0.00352
C         11.04602        14.99139         0.22592
C         11.03147        16.44907         0.27249
C         12.27640        14.28853         0.13251
C         12.27443        17.19343        -0.17158
C         11.01530        19.33292         0.21191
C         12.35658        18.64643         0.32308
C         13.55174         2.04723         0.14772
C         13.55056         3.44884         0.43143
C         14.78482         1.36981         0.06690
C         14.77723         4.16526         0.48084
C         13.53040         6.36128         0.79105
C         13.55126         7.84726         0.51707
C         14.79711         5.61722         0.58542
C         14.82959         8.50186         0.20432
C         13.57895        10.68188        -0.13151
C         13.59238        12.18034        -0.18825
C         14.85042         9.95609         0.13042
C         14.92639        12.91135        -0.01856
C         13.52089        15.03478         0.43773
C         13.56627        16.48581         0.15371
C         14.79227        14.28540         0.60535
C         14.74623        17.13430        -0.11144
C         13.50267        19.36388        -0.43177
C         14.79352        18.54114        -0.47799
C         16.01174         2.05058         0.22860
C         16.00139         3.46672         0.39978
C         17.25556         1.35160         0.17043
C         17.28979         4.18232         0.72129
C         15.99883         6.32012         0.39884
C         15.98568         7.75431         0.24883
C         17.28512         5.64069         0.34036
C         17.24805         8.48943         0.05279
C         16.00258        10.63856         0.43542
C         16.01655        12.10024         0.68901
C         17.24706         9.86539         0.61992
C         17.30570        12.81447         1.05644
C         16.07861        15.06245         0.55309
C         15.99528        16.33107        -0.24421
C         17.36151        14.32937         0.77738
C         17.22961        16.95901        -0.80021
C         15.97755        19.13273        -0.85566
C         17.24596        18.43323        -0.95751
C         18.49184         2.03539         0.15970
C         18.52607         3.45148         0.27583
C         19.72753         1.32338        -0.01712
C         19.74483         4.15411         0.13538
C         18.49067         6.29421         0.13396
C         18.53505         7.76540        -0.03801
C         19.76293         5.59312         0.10217
C         19.80722         8.50405         0.18230
C         18.55532        10.53882         0.87024
C         18.57400        12.01029         1.03647
C         19.83140         9.83514         0.53066
C         19.81421        12.54672         1.25463
C         18.58502        14.94807         0.15508
C         18.53885        16.23583        -0.64671
C         19.89570        14.64653         0.70574
C         19.80383        16.98538        -0.76647
C         18.45413        19.05566        -1.16089
C         19.73308        18.35596        -1.12887
C         20.91973         1.99412        -0.09386
C         20.96145         3.42384        -0.04638
C         22.17054         4.13907        -0.18530
C         20.98470         6.27953        -0.07807
C         21.01696         7.78609        -0.36114
C         22.17439         5.52744        -0.20464
C         22.28838         8.51081        -0.00855
C         21.08700        10.58270         0.56888
C         21.08093        11.95585         0.86881
C         22.29802         9.82320         0.32072
C         22.22868        12.84844         0.70704
C         21.08796        15.03815         0.13915
C         21.05473        16.32632        -0.57437
C         22.24759        14.19264         0.40319
C         22.23042        17.04216        -0.88575
C         20.93572        19.03860        -1.39507
C         22.16008        18.37024        -1.30713
O         16.78629        15.16825         1.82485
O         19.90511        13.82285         1.82924
O         13.60633        11.41102        -1.44046
O         16.31504        16.22093        -1.67546
O         16.31442        12.46864         2.06750
O         11.35954         3.47959         1.62865
O         13.57625         7.35247         1.88793
O         17.85408         8.28759        -1.27537
O          4.37241         3.89556         1.36437
O          8.61674        15.57928         1.84239
O         17.80746         9.89123         1.98048
O          8.19148         5.96335        -2.01454
O          9.55710         3.75568        -1.69171
O         11.96232         8.01487        -1.34507
O          4.75733         9.92054        -2.25528
O          4.15700         8.40051         0.96090
O         14.00578        14.53732         1.78218
O          6.73247        12.75509        -1.61634
O         18.58557        14.93398        -1.31171
O          4.84666        13.33150         1.38312
O          2.46733         8.48809        -2.26391
H          3.29503         9.01809        -2.49204
O         20.89599         7.88548        -1.82583
H         19.94106         7.83708        -2.05392
O         13.74405        20.62585         0.18803
H         13.74910        20.46323         1.15689
O          3.59184        15.10179        -1.54404
H          2.78349        15.58594        -1.81538
O         12.18526        17.27739        -1.62684
H         12.18202        16.36647        -1.98891
O         17.35841         4.17925         2.20657
H         17.38100         3.24087         2.49289
O          5.66270         6.45698        -2.32359
H          6.48384         6.67628        -2.82236
O         12.73430        18.66269         1.72389
H         12.01347        18.24862         2.24380
O         15.44110        13.18700        -1.34357
H         15.06630        12.50664        -1.95297
O         11.69395         5.83381         2.23987
H         12.38858         5.51546         2.85345
H          0.34210         1.45865        -0.57816
H          0.24378         3.91005        -0.44288
H          2.49220         0.22931        -0.42882
H          0.21503         5.86270         0.05880
H          0.13879         8.18137        -0.54875
H          0.18074        10.12268        -0.11785
H          0.17192        12.52964         0.27692
H          0.25163        14.44668         0.79450
H          0.28041        16.89190         0.97550
H          1.48573        19.07219         1.02509
H          4.94154         0.24345        -0.09495
H          3.61399        20.33345         0.92050
H          7.34609         0.20186        -0.07327
H          6.06071        20.36930         0.61975
H          9.85698         0.16126        -0.31457
H          8.53949        20.38663         0.34368
H         12.40520         0.24496        -0.31031
H         10.99338        20.43348         0.19084
H         14.79233         0.28766        -0.12947
H         13.17559        19.56081        -1.48528
H         17.24517         0.25803         0.05391
H         15.97688        20.21260        -1.07050
H         19.69880         0.22646        -0.08704
H         18.48089        20.14690        -1.30412
H         21.86154         1.44088        -0.22074
H         23.11303         3.58679        -0.31005
H         23.13044         6.04622        -0.35692
H         23.24887         7.99295        -0.14320
H         23.26342        10.32598         0.48020
H         23.21477        12.35621         0.72302
H         23.24032        14.63010         0.20893
H         23.21097        16.56059        -0.76802
H         20.90608        20.09749        -1.68812
H         23.08831        18.91156        -1.53813
