         260
 CSIRO Nanostructure Databank - Neutral Graphene Oxide Data Set
C         31.04556        31.98479         1.86908
C         30.80878        33.06742         1.30086
C         30.39698        36.10210         0.30246
C         30.26570        37.28242        -0.00972
C         30.32617        40.18001         0.90594
C         30.19292        41.37871         1.34044
C         33.52036        29.27472         1.39082
C         32.46952        29.83396         1.91421
C         33.51165        32.06045         1.69581
C         32.19591        31.15868         1.84631
C         33.22418        33.47611         1.04239
C         31.81798        34.07499         0.93259
C         32.69912        36.08518        -0.31869
C         31.46747        35.14206        -0.08640
C         32.64494        37.43617        -0.43685
C         31.32028        38.25024        -0.47515
C         32.65217        40.03536         0.91966
C         31.38055        39.44964         0.42598
C         32.61273        41.48038         1.53540
C         31.28567        42.22016         1.49035
C         32.59279        44.20906         1.41174
C         31.47758        43.61521         1.45172
C         35.70954        27.63164        -0.15297
C         35.46702        29.08213        -0.22905
C         34.56636        29.78860         0.70241
C         35.79870        31.98504         0.23570
C         34.70649        31.27496         0.99086
C         35.60020        33.44763        -0.12990
C         34.32041        34.13932         0.23487
C         35.14393        36.13824        -1.03137
C         33.93573        35.30908        -0.67907
C         35.18693        37.61063        -0.90395
C         33.87629        38.28030        -0.56562
C         35.22940        40.19215         0.56506
C         33.90821        39.59343         0.20491
C         35.24398        41.54587         1.22896
C         33.91941        42.25514         1.64464
C         35.10736        44.50372         1.83099
C         33.88946        43.74643         1.62488
C         35.32218        45.92551         1.56348
C         37.72961        27.40193        -1.57270
C         36.51281        26.97177        -0.80908
C         37.96935        28.88135        -1.03560
C         36.65880        29.76048        -0.87815
C         37.57884        31.99191        -1.42202
C         36.74411        31.24480        -0.65860
C         37.79279        33.43306        -1.30675
C         36.36358        33.97099        -1.38806
C         38.09377        36.39596        -1.11804
C         36.19208        35.44635        -1.53893
C         37.80029        37.46072        -0.30135
C         36.52799        38.27077        -0.47780
C         37.68259        40.25575         0.65096
C         36.41279        39.58485         0.23179
C         37.75010        41.74762         0.51699
C         36.40112        42.43598         0.90053
C         37.74168        44.61855         1.24020
C         36.46772        43.80139         1.47121
C         37.62579        46.07927         0.77547
C         36.32142        46.57404         1.24276
C         39.99746        24.73829        -0.04824
C         38.98508        25.42992        -0.31877
C         40.36661        27.14956        -1.35128
C         38.96316        26.55914        -1.26775
C         40.49769        28.62897        -1.79363
C         39.24612        29.46916        -1.63184
C         40.42131        31.68410        -1.36470
C         39.38264        30.82371        -1.89091
C         40.28358        33.06039        -1.05237
C         39.06443        33.94784        -1.22990
C         40.13577        35.70690         0.16015
C         39.31726        35.49213        -1.12281
C         40.18936        37.18760         0.64023
C         38.91135        37.98067         0.57484
C         40.26823        40.20953         0.88328
C         38.94251        39.47129         0.84030
C         40.27840        41.70317         0.76730
C         39.00312        42.44476         0.67847
C         40.29100        44.64448         0.65673
C         39.02069        43.88993         0.96335
C         40.22569        46.15809         0.45212
C         38.84776        46.82606         0.35334
C         40.08949        48.81966        -0.21648
C         39.04539        48.27864         0.20862
C         42.55808        24.56448         0.41002
C         41.36485        25.06992        -0.09184
C         42.93135        27.12850        -0.61617
C         41.58860        26.40165        -0.80803
C         42.93015        28.64091        -0.74377
C         41.71774        29.40041        -1.21854
C         42.70683        31.52146        -0.15404
C         41.43034        30.79578        -0.60262
C         42.78733        32.99214        -0.43623
C         41.47482        33.72702        -0.48158
C         42.70155        35.76710         0.29946
C         41.46826        35.03410        -0.08009
C         42.68272        37.23515         0.01120
C         41.50493        37.95618         0.59830
C         42.60783        40.16628        -0.24485
C         41.54334        39.45020         0.60034
C         42.65617        41.67443         0.00756
C         41.52456        42.37572         0.28810
C         42.60496        44.56281        -0.48662
C         41.53841        43.87255         0.32099
C         42.57689        46.06512        -0.65691
C         41.45517        46.88634        -0.05082
C         42.67301        48.80763        -0.80237
C         41.40452        48.36537        -0.44372
C         43.68826        25.13405         0.44726
C         45.19247        27.14705         0.58231
C         44.03508        26.48364         0.20863
C         45.35359        28.60974         0.28810
C         44.12268        29.35989        -0.14010
C         45.23585        31.54110         0.59435
C         43.97211        30.80352         0.21779
C         45.32295        32.96737         0.30308
C         44.08117        33.68101        -0.10324
C         45.32129        35.89620         0.48203
C         44.02009        35.09696         0.36295
C         45.26381        37.26915        -0.17718
C         43.95142        37.97122        -0.31054
C         45.13736        40.13336        -0.41773
C         43.96461        39.46758        -0.23932
C         45.19610        41.62682        -0.42392
C         43.94350        42.39854        -0.21312
C         45.16395        44.54931        -0.93468
C         43.88139        43.80645        -0.74175
C         45.12085        45.98053        -1.05566
C         43.88403        46.77254        -1.07118
C         43.80328        48.20731        -0.72579
C         47.32273        27.31916         1.81621
C         46.34608        26.72809         1.31241
C         47.77901        28.66999         1.44226
C         46.59691        29.34937         0.75756
C         47.80398        31.57400         0.92225
C         46.51857        30.82820         0.92337
C         47.78431        32.93865         0.61529
C         46.53652        33.62390         0.35741
C         47.82698        35.85456         0.07771
C         46.54870        35.08628         0.06184
C         47.72679        37.35454         0.10080
C         46.42927        37.94538        -0.35148
C         47.71075        40.15171        -0.77981
C         46.41488        39.39275        -0.67421
C         47.67218        41.66391        -0.49704
C         46.38964        42.30473        -1.09527
C         47.66413        44.48481        -1.02803
C         46.38264        43.82807        -0.92805
C         47.50304        45.89365        -1.08460
C         46.41809        46.52563        -1.08506
C         49.91514        29.20299         2.84607
C         48.82629        29.56160         1.97377
C         50.34193        31.50649         1.40233
C         48.95097        30.86335         1.44355
C         50.33001        32.95800         0.89038
C         49.08020        33.67678         0.46449
C         50.28925        35.88945         0.43497
C         49.12341        35.17695         0.36204
C         50.27851        37.39524         0.43640
C         49.00232        38.13238         0.07270
C         50.24540        40.33567        -0.24044
C         49.09703        39.44707        -0.72404
C         50.16595        41.68442        -0.33671
C         48.96010        42.26947        -1.08855
C         50.18202        44.31428        -0.99548
C         48.89061        43.79069        -1.08239
C         50.83263        29.98120         3.19958
C         52.09138        32.25583         2.98883
C         51.19994        31.26587         2.72294
C         52.16989        33.34913         2.27735
C         51.51840        33.85580         1.21835
C         52.69697        36.07681         0.80824
C         51.65687        35.09816         0.38191
C         52.68973        37.28368         0.54512
C         51.55871        38.21641         0.53293
C         52.58042        40.56785         0.46076
C         51.63788        39.55422        -0.20091
C         52.48128        41.79977         0.41129
C         51.26744        42.62690         0.31951
C         51.28450        43.91219        -0.54197
O         32.68572        34.45108         2.00370
O         33.67124        39.54805        -1.24122
O         39.34140        37.31765         1.81551
O         37.23778        36.11432        -2.19567
O         45.19996        29.06359        -1.09439
O         35.55863        34.38225         0.97812
O         49.97297        32.99244        -0.52558
O         42.63491        26.38608        -1.82789
O         40.44715        41.01946         2.07913
O         41.94641        38.69750         1.77678
O         39.77938        26.33098        -2.42772
O         42.97082        31.13712         1.23947
O         35.96110        31.66557         1.65420
O         50.76386        38.03859         1.70155
O         36.82176        42.33014        -0.47904
O         37.96444        46.21125        -0.62588
O         45.60064        31.21415         1.99614
O         42.83600        29.21323        -2.10371
O         34.82356        41.63402         2.60483
O         35.45358        29.46148        -1.64529
O         38.10224        39.81346         1.98336
O         46.99398        39.75754        -1.97465
O         48.15828        38.12011         1.27149
O         35.99463        43.95315         2.82634
O         47.72605        28.87230        -0.01043
O         36.00906        38.33139        -1.84266
O         38.61607        44.33554         2.35455
O         44.90190        42.21992         0.89432
O         47.19471        35.40620        -1.19449
O         42.85461        46.40768        -2.03293
O         43.22109        35.29321         1.58840
O         51.93328        39.30992        -1.49341
O         41.16886        46.77725         1.37069
O         32.67783        40.28152         2.34391
O         42.85425        43.90944        -1.77008
O         43.70508        33.40488        -1.50222
O         41.32645        44.36861         1.66285
O         43.03414        37.49375        -1.37743
O         38.26167        31.39725        -2.47070
O         33.54381        34.59172        -1.95787
O         49.41220        39.11847        -2.09371
H         50.41766        39.04565        -2.16034
O         39.46889        34.92833         1.17289
H         39.26155        35.52443         1.93363
O         45.56417        36.14428         1.88728
H         44.69294        36.15363         2.35133
O         51.07243        30.75495         0.41266
H         50.77374        31.05473        -0.47474
O         42.08094        40.04206        -1.59962
H         42.81247        40.13785        -2.24618
O         35.81651        33.31067        -2.55136
H         34.95004        33.72923        -2.77569
O         49.04689        41.88315        -2.47775
H         49.27434        40.91405        -2.54107
O         38.40726        28.66850         0.34000
H         38.86228        29.48052         0.66741
O         40.68217        28.59188        -3.22201
H         41.61526        28.32640        -3.39564
O         40.11716        35.90569        -2.24331
H         39.57711        35.82601        -3.05832
O         31.10503        38.61626        -1.82898
H         30.45069        39.34375        -1.86972
O         31.09567        34.48358        -1.28895
H         30.50479        35.06907        -1.80556
O         50.80031        43.02593         1.57317
H         51.55433        43.20720         2.17020
O         33.37634        35.60096        -2.97992
H         32.39411        35.70157        -3.03630
O         40.66865        30.44570         0.59825
H         41.22389        30.66790         1.38596
O         51.90123        34.76572        -0.97598
H         51.26826        34.05785        -1.24597
O         47.71716        41.91228         0.91006
H         46.82570        41.81065         1.30996
O         33.91409        32.29964         3.03161
H         34.88444        32.46928         3.03435
O         37.48665        27.42497        -2.95201
H         38.22867        26.97696        -3.41800
O         46.30142        42.09634        -2.50859
H         47.22038        42.02340        -2.87506
