         260
 CSIRO Nanostructure Databank - Neutral Graphene Oxide Data Set
C         31.41247        31.39266        -2.15948
C         31.58308        32.58928        -2.41790
C         31.39639        35.80849        -2.35932
C         31.15973        37.06184        -2.43841
C         32.26723        39.54670        -3.98019
C         32.48834        40.67299        -4.54630
C         32.81609        28.89808         0.28656
C         32.12005        29.31633        -0.63784
C         33.46820        31.34988        -0.78874
C         32.33704        30.49852        -1.46822
C         33.50806        32.84298        -0.96942
C         32.52742        33.57270        -1.88509
C         32.88354        35.79478        -0.51589
C         32.24424        34.98303        -1.65968
C         33.24035        37.25782        -0.99660
C         32.28284        37.93425        -2.00001
C         34.17058        39.56494        -2.58634
C         32.83670        38.97018        -2.86885
C         34.50263        40.93911        -3.24584
C         33.41358        41.59935        -4.08161
C         34.24823        43.64240        -3.30933
C         33.51175        43.00440        -4.13068
C         35.43615        27.38468         0.86032
C         35.18789        28.67438         1.08877
C         33.93519        29.50271         1.07964
C         35.48644        31.45900         0.64212
C         34.27610        30.81538         0.34224
C         35.63332        32.93281         0.25370
C         34.17061        33.53933         0.21181
C         35.26891        35.86096         0.68343
C         34.08330        35.08370         0.18339
C         35.40531        37.32255         0.32800
C         34.58011        37.88322        -0.78326
C         36.08965        39.85486        -0.94333
C         34.93744        39.07231        -1.40144
C         36.43100        41.20789        -1.51805
C         35.67819        41.81024        -2.73460
C         36.14490        44.14890        -1.71254
C         35.30819        43.30890        -2.48458
C         36.20422        45.59778        -1.74268
C         37.68873        27.06247         1.38906
C         36.46061        26.58595         1.03957
C         37.77407        28.60232         1.23784
C         36.48617        29.35528         1.66763
C         37.79041        31.52447         1.59897
C         36.57557        30.81902         1.27874
C         37.83576        32.91825         1.55227
C         36.56940        33.64060         1.21987
C         37.68723        35.93866         1.67609
C         36.46345        35.13519         1.30705
C         37.80773        37.34392         1.29476
C         36.66045        38.05284         0.71071
C         37.83053        40.19902         0.83246
C         36.87689        39.37180         0.07807
C         37.81808        41.68342         0.62415
C         37.22834        42.17381        -0.66186
C         38.03199        44.56824        -0.08913
C         37.16071        43.63927        -0.89239
C         38.34545        46.01193        -0.65565
C         36.99089        46.38748        -1.20890
C         40.09307        24.30090         0.71176
C         39.07144        24.94240         0.96784
C         40.28687        26.93794         1.76438
C         38.90127        26.25519         1.59258
C         40.28650        28.46153         1.98952
C         38.98526        29.22081         1.91213
C         40.34228        31.45862         2.08031
C         38.99111        30.74139         2.01944
C         40.36010        32.97206         2.05640
C         39.03333        33.69329         1.94756
C         40.31476        35.95038         1.79306
C         39.01585        35.20243         1.89469
C         40.29787        37.31944         1.80251
C         38.97887        38.05833         1.95341
C         40.18417        40.38523         1.77893
C         38.96231        39.56023         1.63247
C         40.15224        41.77693         1.65911
C         38.89020        42.50480         1.30127
C         40.08732        44.73536         1.60219
C         38.90915        43.99381         0.98562
C         40.08217        46.24394         1.27841
C         39.02161        46.89743         0.37569
C         40.22078        48.98780         0.80882
C         39.42021        48.30053         0.16096
C         42.54397        24.52639        -0.17863
C         41.47190        24.75950         0.78897
C         42.58879        27.18176         0.69229
C         41.54357        26.24168         1.31116
C         42.85317        28.48649         1.50066
C         41.60357        29.23471         1.96724
C         42.83106        31.51094         1.76436
C         41.58448        30.71708         1.84000
C         42.77867        33.00647         1.57985
C         41.61375        33.70546         1.73901
C         42.82844        35.92693         1.44656
C         41.61759        35.20236         1.99023
C         42.84274        37.42228         1.63271
C         41.53876        38.13060         1.94825
C         42.76406        40.44112         1.63898
C         41.46273        39.66043         1.96291
C         42.60919        41.87287         1.31207
C         41.39588        42.51427         1.46408
C         42.61201        44.78450         1.14725
C         41.34335        43.99360         1.20874
C         42.64165        46.27678         1.33478
C         41.33784        47.00494         1.64976
C         42.76235        49.02027         1.57701
C         41.37184        48.56354         1.61080
C         43.50995        25.22913        -0.47272
C         44.54968        27.52893        -0.72154
C         43.93765        26.51216         0.19669
C         44.89872        28.82884        -0.11597
C         44.06734        29.30550         1.12351
C         45.49170        31.47278         1.15843
C         44.13399        30.77035         1.47057
C         45.37142        33.02485         1.20829
C         44.06931        33.76233         1.45787
C         45.29776        36.01237         1.21401
C         43.99502        35.24949         1.22739
C         45.32097        37.52025         1.21098
C         43.96609        38.21390         0.96087
C         45.16327        40.45577         0.82855
C         43.97457        39.69766         1.24720
C         45.00091        41.87618         0.35431
C         43.77606        42.62158         0.76442
C         45.10178        44.71424         1.30630
C         43.88802        44.06481         1.09561
C         45.18563        46.12404         1.60514
C         43.99859        46.97157         1.42529
C         43.78952        48.37210         1.85276
C         45.27400        28.50173        -2.79056
C         44.77223        27.56809        -2.08012
C         45.88048        29.67339        -2.26692
C         45.58203        29.85471        -0.91302
C         47.25253        31.75524        -0.78884
C         46.18389        30.95679        -0.12192
C         47.59213        33.09396        -0.18996
C         46.59066        33.80056         0.71497
C         47.46534        36.08022        -0.16321
C         46.56054        35.30370         0.76975
C         47.62358        37.55134         0.00136
C         46.66422        38.27082         0.94112
C         47.47129        40.44309        -0.34712
C         46.47429        39.76160         0.58101
C         47.49657        41.94024        -0.28290
C         46.27520        42.67799         0.22970
C         47.74427        44.49873         1.26405
C         46.35844        44.03383         0.84137
C         47.61153        45.83060         1.88040
C         46.53998        46.48317         1.80127
C         47.62250        30.04848        -4.09026
C         46.66971        30.65903        -3.08320
C         48.78387        32.12097        -2.72699
C         47.57055        31.55631        -2.23443
C         49.32469        33.27673        -2.10285
C         48.60361        33.87618        -0.94527
C         49.67176        36.06065        -1.55352
C         48.45937        35.35916        -1.01933
C         49.84086        37.49814        -1.18385
C         48.71448        38.20176        -0.49420
C         49.95084        40.40651        -1.11056
C         48.61871        39.63471        -0.98661
C         50.02368        41.94664        -0.87645
C         48.75034        42.80573        -0.53226
C         50.30543        44.35078         0.55972
C         48.93350        43.83570         0.63892
C         48.70647        30.51779        -4.49965
C         50.69642        32.19318        -4.15806
C         49.48111        31.54498        -3.89491
C         51.20308        33.14815        -3.50313
C         50.54376        33.92484        -2.50062
C         51.93846        36.09706        -2.10832
C         50.82923        35.22287        -2.02964
C         52.16348        37.29591        -1.83723
C         51.23804        38.11077        -0.93559
C         52.28330        40.45769        -1.17239
C         51.22380        39.60474        -1.13131
C         52.42725        41.72656        -0.98578
C         51.40107        42.56851        -0.65269
C         51.27694        43.83843        -0.01381
O         45.41140        36.79302         2.45796
O         37.88134        41.37081        -1.73974
O         46.17181        43.87130        -0.60328
O         39.58148        26.27916         2.85591
O         47.60700        30.63049         0.08907
O         42.47996        37.71782         2.99085
O         33.64486        30.55130        -2.03178
O         41.81203        44.42355        -0.08978
O         37.63072        44.61461         1.30915
O         38.18643        35.64675         3.01479
O         46.29948        40.51054         1.82401
O         46.93351        41.24608        -1.44829
O         35.00204        39.70031        -3.79175
O         38.80684        46.75741         1.78559
O         35.40954        38.12027         1.55291
O         39.59181        31.06427         3.28828
O         42.28454        40.19749         3.02227
O         47.24878        34.53964         1.78766
O         43.75843        31.06714         2.83879
O         37.73810        40.00600         2.28183
O         41.92213        35.18858         3.54127
O         34.10709        35.62638         1.53875
O         41.13449        47.84528         2.82970
O         43.32520        46.79962         0.13899
O         33.92051        33.29631        -2.29571
O         41.96727        25.07875         2.08334
O         47.17626        35.75984        -1.58818
O         35.98084        34.26962         2.38717
O         39.44431        28.67936         3.16043
O         39.66369        33.42240         3.25770
O         45.35575        28.67905         1.26165
O         32.21957        38.24478        -0.59746
O         37.58430        42.28721         1.91492
O         45.00311        33.44727         2.54761
O         49.87620        41.38008        -2.20553
O         44.01864        42.18832        -0.65458
O         48.48289        43.44165         1.94521
O         48.95419        33.25325         0.32591
O         42.55473        28.57809         2.89868
O         49.46497        37.13648        -2.53825
O         31.84751        35.90684         0.45795
H         32.22115        36.34832         1.25284
O         44.72791        26.22027         1.31406
H         45.64297        26.00619         1.04230
O         51.56465        37.81239         0.41692
H         52.41735        38.23659         0.64835
O         43.68958        38.05648        -0.47758
H         44.19522        38.72972        -0.98235
O         38.76578        38.02106         3.38959
H         37.94126        38.52348         3.57880
O         48.52784        43.62086        -1.68029
H         48.26231        43.03806        -2.42409
O         45.72197        31.45715        -3.81273
H         46.21144        32.03602        -4.43456
O         33.47115        33.10278         1.37738
H         33.75854        33.68056         2.12385
O         36.28144        33.08500        -1.02048
H         35.75542        32.63842        -1.72075
O         36.58174        41.85071        -3.84535
H         37.50035        41.82986        -3.48629
O         46.35973        31.12900         2.23350
H         45.94928        31.46485         3.06120
O         47.41747        38.26654         2.16964
H         46.96070        37.66051         2.80436
O         48.20851        39.39242        -2.35120
H         48.36275        40.22040        -2.86049
O         41.93735        27.69929        -0.50313
H         41.89208        26.97816        -1.17032
O         36.36744        29.26941         3.08504
H         35.61967        29.83764         3.37258
O         39.26861        45.92377        -1.72328
H         38.84209        45.51754        -2.50565
O         33.56280        29.81703         2.42106
H         33.31052        28.98857         2.87967
O         39.96825        44.62790         3.02728
H         39.12292        45.05853         3.28551
O         40.84851        35.75873         4.26080
H         40.20575        35.00819         4.36905
O         37.97839        28.85367        -0.17514
H         37.23044        28.45356        -0.67005
