         661
 CSIRO Nanostructure Databank - Neutral Graphene Oxide Data Set
C          5.93670        31.75345        -0.44325
C          5.97136        33.10209        -0.47712
C          8.32648        27.41247        -0.40311
C          8.24301        28.82533        -0.23960
C          7.05102        29.50048        -0.08818
C          8.29568        31.67454         0.29227
C          6.97268        30.94859         0.32375
C          8.24987        33.13477         0.68854
C          7.05911        33.88674         0.09943
C          8.23255        35.99932         0.68442
C          7.03128        35.24538         0.15021
C          8.26200        37.49814         0.48485
C         10.82257        23.06400        -0.32320
C         10.66710        24.47657         0.00579
C          9.54082        25.28620        -0.42921
C         10.79088        27.38112         0.00579
C          9.53671        26.68028        -0.26917
C         10.81517        28.84843        -0.17477
C          9.51048        29.59459        -0.27975
C         10.75501        31.71447         0.23978
C          9.48102        31.02827         0.08787
C         10.71361        33.16896         0.26303
C          9.54023        33.85972         0.37165
C         10.72587        36.10247         0.43215
C          9.47298        35.34687         0.06354
C         10.71302        37.43894         0.69196
C          9.44960        38.19120         0.59657
C         10.69642        40.35698         0.54280
C          9.51201        39.63114         0.49100
C         10.75155        41.76650         0.35741
C         13.37121        18.89161        -0.87427
C         13.34607        20.31737        -0.70529
C         12.11778        20.99048        -0.53279
C         13.29012        23.07316         0.01653
C         12.06016        22.38553        -0.25343
C         13.24373        24.47625         0.47850
C         11.94311        25.24053         0.44342
C         13.24747        27.42364         0.34310
C         11.96798        26.71219         0.28402
C         13.23317        28.88796         0.36120
C         12.03025        29.59078         0.22322
C         13.18158        31.75783         0.83432
C         11.95848        31.01758         0.34035
C         13.25770        33.19279         0.38023
C         11.99192        33.90072         0.10377
C         13.24909        35.98736         0.82548
C         11.99537        35.38919         0.22723
C         13.27971        37.48919         0.74917
C         11.98617        38.16812         0.94869
C         13.25236        40.35550         0.55784
C         11.97666        39.67168         0.85402
C         13.23717        41.76223         0.42308
C         11.96023        42.47839         0.35882
C         13.16097        44.62916         0.14784
C         11.97266        43.88691         0.17265
C         13.18241        46.01891        -0.05600
C         15.82570        14.61152        -1.04723
C         15.82197        16.02651        -1.11288
C         14.59953        16.76931        -1.10130
C         15.80438        18.93372        -1.37124
C         14.55723        18.17664        -1.08270
C         15.80556        20.46478        -1.31267
C         14.55283        21.07072        -0.70882
C         15.74561        23.21097        -0.36543
C         14.53981        22.45237        -0.32943
C         15.84378        24.49471         0.44438
C         14.52005        25.26524         0.58936
C         15.70750        27.47652         0.01664
C         14.44960        26.73685         0.39503
C         15.72713        28.91627         0.44479
C         14.47156        29.62168         0.51910
C         15.69259        31.75890         0.57951
C         14.47660        31.02051         0.61519
C         15.70580        33.15312         0.47225
C         14.45122        33.86470         0.37386
C         15.76200        35.99474         0.80263
C         14.50346        35.36518         0.19169
C         15.74657        37.48526         0.53913
C         14.47863        38.18372         0.62644
C         15.68773        40.33274         0.26188
C         14.47197        39.63782         0.50421
C         15.67743        41.75611         0.17991
C         14.45641        42.45852         0.31895
C         15.66586        44.63273        -0.06187
C         14.45829        43.95049         0.52660
C         15.64353        45.98010        -0.31222
C         14.40279        46.73501        -0.19243
C         15.66539        48.86350        -0.32086
C         14.44580        48.13719        -0.21402
C         15.71110        50.23844        -0.03977
C         18.16105        10.35675        -0.13618
C         18.19686        11.68816        -0.52157
C         17.02575        12.44313        -0.80658
C         18.25762        14.59307        -0.85273
C         17.02736        13.86513        -0.94492
C         18.25717        15.99943        -0.86546
C         17.07157        16.72534        -1.05614
C         18.42945        18.96531        -1.24232
C         17.11097        18.18442        -1.32895
C         18.29020        20.38182        -0.69779
C         17.07806        21.03963        -0.70337
C         18.31982        23.26136        -0.38185
C         17.02505        22.52265        -0.60922
C         18.35939        24.78089        -0.21237
C         17.02297        25.37760         0.14159
C         18.21593        27.46315         0.52470
C         16.98609        26.73529         0.31960
C         18.19457        28.87913         0.56936
C         16.93032        29.57524         0.55127
C         18.11054        31.60658        -0.17908
C         17.01308        31.06377         0.75864
C         18.12159        33.13052        -0.22483
C         16.93748        33.88283         0.25171
C         18.21095        36.01167         0.13036
C         16.99212        35.26824         0.31712
C         18.19435        37.43730         0.17570
C         16.94200        38.16361         0.32074
C         18.14582        40.28595        -0.00595
C         16.94387        39.60816         0.18544
C         18.16030        41.73111        -0.43446
C         16.90518        42.48743        -0.06123
C         18.13271        44.60876        -0.31496
C         16.89270        43.86783        -0.18482
C         18.14485        45.97221        -0.52437
C         16.85647        46.67181        -0.89090
C         18.09737        48.82780        -0.71969
C         16.90406        48.15338        -0.60557
C         18.07122        50.33052        -0.86471
C         16.92253        50.97853        -0.12743
C         18.27131        53.00400         0.34647
C         17.02352        52.28236         0.32266
C         18.36190        54.23684         0.94933
C         20.76301         6.16961        -0.56932
C         20.70516         7.57784        -0.25778
C         19.46678         8.23588        -0.12805
C         20.65106        10.38810         0.27147
C         19.35354         9.63314         0.41950
C         20.74083        11.69003        -0.12872
C         19.51943        12.35462        -0.66109
C         20.77798        14.56126        -0.46152
C         19.53861        13.87359        -0.79834
C         20.79447        16.00817        -0.60488
C         19.49801        16.73239        -0.50676
C         20.83621        18.92391        -0.37093
C         19.53280        18.21405        -0.51935
C         20.74837        20.33791        -0.12735
C         19.52137        21.02104        -0.26589
C         20.68709        23.13769         0.68233
C         19.43990        22.43103         0.15892
C         20.71650        24.62789         0.75949
C         19.49000        25.36466         0.60660
C         20.60985        27.48591         1.29563
C         19.42575        26.74022         0.81194
C         20.62620        29.01613         1.25932
C         19.39760        29.63210         0.64457
C         20.64668        31.69632         0.22274
C         19.43279        30.99669         0.27339
C         20.72518        33.08195        -0.40873
C         19.42055        33.87201        -0.35534
C         20.66600        36.02265        -0.07996
C         19.44530        35.32569        -0.05864
C         20.66195        37.45508        -0.07247
C         19.41011        38.15207        -0.00448
C         20.59326        40.30378        -0.31841
C         19.39453        39.58567        -0.06842
C         20.65255        41.75280        -0.06799
C         19.45126        42.43539        -0.04881
C         20.65078        44.68672         0.04076
C         19.37051        43.90607         0.08405
C         20.63024        46.06272        -0.49592
C         19.38266        46.72151        -0.61229
C         20.57722        48.83726        -1.03615
C         19.35907        48.12484        -0.84434
C         20.56022        50.29462        -1.00794
C         19.40920        50.98872        -0.66110
C         20.66058        53.06250        -0.26886
C         19.47002        52.36170        -0.22645
C         20.68617        54.48649         0.12234
C         19.70928        54.85509         1.21594
C         20.88786        57.06842         1.46054
C         19.73554        56.30609         1.59244
C         21.03289        58.31228         2.12596
C         23.23067         3.35720        -0.48240
C         22.01229         4.03147        -0.57506
C         23.24408         6.17927        -0.55284
C         21.95613         5.45272        -0.55201
C         23.21342         7.66867        -0.18857
C         21.91143         8.24166         0.11588
C         23.16547        10.37006         0.75355
C         21.87078         9.62281         0.60701
C         23.13127        11.81055         0.43934
C         22.01379        12.41568        -0.06574
C         23.26907        14.64264        -0.14542
C         22.07895        13.83009        -0.62830
C         23.31387        16.01055        -0.18396
C         22.08428        16.77392        -0.52163
C         23.25629        18.90237         0.11077
C         22.03232        18.22944        -0.23897
C         23.21795        20.28900         0.33136
C         21.96601        21.02725         0.25983
C         23.18736        23.07753         0.91785
C         21.93911        22.38113         0.59496
C         23.18177        24.57892         1.08501
C         21.90097        25.30129         0.97496
C         23.16550        27.50246         0.98518
C         21.92424        26.74879         1.24764
C         23.12914        28.86251         0.69232
C         21.90137        29.61116         0.70264
C         23.13915        31.69123         0.27613
C         21.88555        30.98376         0.40499
C         23.12760        33.16785         0.40311
C         21.90428        33.90858         0.06039
C         23.20638        36.02118        -0.12545
C         21.91625        35.27553        -0.06009
C         23.19980        37.52651        -0.23413
C         21.85982        38.19041        -0.31431
C         23.28558        40.41591         0.94780
C         21.73750        39.54027        -0.69934
C         23.14710        41.83504         0.49353
C         21.94044        42.44409         0.21407
C         23.20659        44.68033        -0.15396
C         21.93621        43.93582         0.16686
C         23.09627        45.97403        -0.91354
C         21.82021        46.74268        -0.83461
C         23.13490        48.84508        -1.20516
C         21.80203        48.12177        -1.12668
C         23.05837        50.30903        -1.71063
C         21.77860        51.05460        -1.34104
C         23.12791        53.25768        -0.86187
C         21.82865        52.53815        -0.98111
C         23.19064        54.57913        -0.45664
C         21.92678        55.29445        -0.10335
C         23.30211        57.38733         0.58667
C         21.99301        56.64689         0.55224
C         23.44758        58.46532         1.58639
C         22.28622        58.97684         2.23491
C         23.67785        60.68063         3.30524
C         22.42778        60.11382         3.07997
C         24.45047         4.02945        -0.33709
C         25.68592         6.16038        -0.11894
C         24.50748         5.44590        -0.32545
C         25.71674         7.57897         0.13102
C         24.46942         8.33243         0.22805
C         25.69800        10.41029         0.81097
C         24.47062         9.66796         0.58569
C         25.64300        11.79046         0.93978
C         24.35506        12.58491         0.84352
C         25.80465        14.61264         0.17053
C         24.51293        13.87363         0.06624
C         25.76792        16.08092         0.23796
C         24.53957        16.75510         0.09487
C         25.71021        18.85157         0.58489
C         24.50235        18.17252         0.24607
C         25.69359        20.29063         0.67915
C         24.45723        20.98060         0.57180
C         25.66285        23.10185         0.61854
C         24.46221        22.38868         0.65333
C         25.57767        24.56152         0.26002
C         24.42227        25.30062         0.86666
C         25.51805        27.40565         0.08951
C         24.50067        26.78551         1.05630
C         25.58300        28.89837         0.26095
C         24.37531        29.57313         0.40170
C         25.61585        31.71896         0.10248
C         24.33634        31.00580         0.29790
C         25.67542        33.20322         0.23796
C         24.40931        33.91987         0.56424
C         25.64030        36.05682         0.40149
C         24.45162        35.37736         0.32247
C         25.66432        37.50268         0.30355
C         24.43647        38.22035         0.23245
C         25.68745        40.30263         0.30876
C         24.47058        39.62464         0.45661
C         25.60666        41.72355        -0.16797
C         24.48033        42.58944         0.47337
C         25.66071        44.57927        -0.58387
C         24.40975        43.87399        -0.31039
C         25.64716        45.99324        -1.07779
C         24.33151        46.61663        -1.46962
C         25.60419        48.86512        -1.79875
C         24.27372        48.07508        -1.98330
C         25.58254        50.31634        -1.40187
C         24.29997        51.01914        -1.21153
C         25.67128        53.13577        -0.75682
C         24.34995        52.46753        -1.10436
C         25.64779        54.55928        -0.36087
C         24.46646        55.25591        -0.24794
C         25.84161        57.22429         0.56132
C         24.54035        56.77510        -0.08254
C         25.89772        58.37253         1.33865
C         24.72320        59.01038         1.86635
C         24.82511        60.12730         2.72958
C         26.90822         8.20881         0.41653
C         28.19558        10.33180         0.22725
C         27.02445         9.62477         0.91088
C         28.63780        11.53952         0.72137
C         26.80255        12.61637         1.19871
C         28.24428        14.60324         0.73708
C         26.96574        13.92266         0.78016
C         28.22566        16.02201         0.70180
C         26.95996        16.75854         0.60890
C         28.14874        18.80833         1.42362
C         26.93010        18.15334         0.78010
C         28.14406        20.37088         1.40451
C         26.89393        21.01975         0.86586
C         28.14648        23.21804         0.95652
C         26.88940        22.41552         0.72352
C         28.09944        24.59035         0.29283
C         26.87748        25.31286         0.33473
C         28.06128        27.43130         0.20154
C         26.84606        26.70151         0.19221
C         28.10392        28.85428         0.28985
C         26.84574        29.59920         0.25243
C         28.11122        31.70373         0.68763
C         26.86698        30.97595         0.26809
C         28.13331        33.20349         0.48807
C         26.95859        33.89506         0.48969
C         28.18068        36.06801         0.67852
C         26.88058        35.34451         0.91254
C         28.16666        37.47026         0.52893
C         26.91028        38.18836         0.42428
C         28.17129        40.32003         0.21027
C         26.93001        39.60592         0.29785
C         28.14457        41.74642        -0.03440
C         26.93518        42.41541        -0.18037
C         28.20282        44.46137        -1.05336
C         26.90412        43.77059        -0.74865
C         28.19983        45.92984        -1.27141
C         26.92252        46.58677        -1.59133
C         28.16437        48.78055        -1.36011
C         26.91559        48.10403        -1.73521
C         28.06335        50.08746        -0.66634
C         26.77772        50.84589        -0.65471
C         28.13507        53.03482        -0.64645
C         26.84286        52.31903        -0.20043
C         28.12557        54.45776        -0.54349
C         26.95966        55.19025        -0.24045
C         27.02126        56.51403         0.24117
C         29.58912        12.48388         0.25018
C         30.66572        14.66206         0.33705
C         29.49744        13.88985         0.51483
C         30.67989        16.06892         0.48953
C         29.43968        16.76602         0.69324
C         30.65252        18.88134         0.88838
C         29.44984        18.18604         0.91250
C         30.71424        20.33927         1.30960
C         29.41622        21.04361         0.97649
C         30.67815        23.07705         1.12348
C         29.43698        22.42368         0.79149
C         30.45297        24.67387        -0.62392
C         29.24816        25.29897        -0.09257
C         30.52525        27.39399         0.17341
C         29.27939        26.71965         0.05159
C         30.57233        28.78949         0.35264
C         29.33548        29.51016         0.33983
C         30.64345        31.72337         0.42510
C         29.36392        30.98772         0.25496
C         30.58906        33.16934         0.72987
C         29.41448        33.88226         0.68333
C         30.62952        36.05183         0.74318
C         29.40693        35.35315         0.74206
C         30.63786        37.46909         0.60048
C         29.40280        38.17940         0.45948
C         30.65156        40.29119         0.20288
C         29.41044        39.60642         0.28612
C         30.65367        41.77535         0.20931
C         29.39746        42.49356        -0.11680
C         30.64780        44.63000        -0.55421
C         29.42466        43.79850        -0.56259
C         30.66871        45.86952        -1.43678
C         29.37357        46.64031        -1.36704
C         30.60764        48.79626        -0.99295
C         29.36024        48.08445        -1.31048
C         30.59050        50.10910        -0.61777
C         29.32852        50.86218        -0.27758
C         29.28355        52.29050        -0.79515
C         31.88698        16.80260         0.43602
C         33.11923        18.92573         0.57321
C         31.89954        18.20019         0.62119
C         33.15454        20.34601         0.61606
C         31.94074        21.06894         0.79280
C         33.11490        23.18501         0.25723
C         31.94875        22.47146         0.69042
C         32.93787        24.46036        -0.62995
C         31.68357        25.23044        -0.35587
C         33.06708        27.33276         0.31786
C         31.74932        26.58046         0.25112
C         33.04112        28.81192         0.31330
C         31.84183        29.48824         0.45523
C         33.14937        31.68457         0.72962
C         31.84188        30.93641         0.91479
C         33.15057        33.07388         0.90031
C         31.85358        33.83074         1.22645
C         33.14819        36.00904         1.23276
C         31.93369        35.27519         0.64850
C         33.13363        37.50934         0.91842
C         31.87459        38.19549         0.58743
C         33.15087        40.26981         0.05375
C         31.88683        39.58872         0.31336
C         33.13115        41.68796        -0.49778
C         31.96279        42.49820         0.04003
C         33.19193        44.61080        -0.84062
C         31.97116        43.96422        -0.28738
C         33.15702        45.93319        -1.16425
C         31.91112        46.69344        -1.17517
C         31.85975        48.04971        -1.04901
C         34.35752        21.09516         0.52216
C         35.67347        23.17330         0.41373
C         34.36718        22.48632         0.32571
C         36.01750        24.32358        -0.23670
C         34.13429        25.36230        -0.65386
C         35.55073        27.36448        -0.18567
C         34.28422        26.62949        -0.16532
C         35.51616        28.76093        -0.03935
C         34.30919        29.52385         0.24705
C         35.66191        31.54974         0.88005
C         34.34096        30.91056         0.50552
C         35.65755        33.09122         0.90624
C         34.38009        33.84690         0.85292
C         35.63378        35.97771         0.50895
C         34.41846        35.24730         0.83930
C         35.62141        37.38915         0.28475
C         34.43362        38.21132         0.55953
C         35.59509        40.24523        -0.36556
C         34.34651        39.59068         0.03595
C         35.63882        41.62063        -0.54456
C         34.43729        42.46583        -0.21887
C         34.46913        43.81125        -0.97244
C         37.05305        25.30149        -0.00296
C         38.05057        27.46860        -0.31309
C         36.84566        26.66445        -0.19132
C         38.02027        28.81029        -0.49391
C         36.75033        29.53642        -0.31313
C         38.16199        31.64473         0.19836
C         36.81560        30.98713         0.05559
C         38.15749        33.11665         0.17517
C         36.94153        33.84487         0.57259
C         38.00797        35.94104        -0.23316
C         36.83900        35.27265         0.25303
C         37.95242        37.32357        -0.49340
C         36.77036        38.05379        -0.25325
C         36.75662        39.44980        -0.51274
C         39.22467        29.57289        -0.98217
C         40.52083        31.75672        -0.76705
C         39.38409        30.92901        -0.31435
C         40.47052        33.10542        -0.71905
C         39.27551        33.82069        -0.29544
C         39.21204        35.22174        -0.45419
O         22.28132        57.70954        -0.42553
O         25.61802        32.60062        -1.10818
O         36.51545        30.63339        -1.32381
O         22.72029        44.60123         1.23842
O         16.43208        18.46599        -2.61960
O         26.95868        47.21287        -2.89846
O         11.02381        24.77172         1.43293
O         25.81215        45.75822         0.35829
O         27.45787        43.75713        -2.12230
O         11.95915        39.00432         2.16577
O         21.50678        52.09300        -2.34841
O         27.11171        49.94734         0.44915
O         27.89845        12.02103         1.84588
O         19.22803        17.51105         0.73149
O         28.30391        20.86940         2.76679
O         23.19629        23.66431         2.28857
O         23.32070         7.18934        -1.59488
O         30.11086        31.44591        -0.91974
O         23.68602        33.52445         1.76544
O         35.19265        24.73550        -1.31984
O         21.21019        27.01151         2.54513
O         18.58021        33.60639        -1.54842
O         21.55370        16.42475        -1.85883
O         33.92921        38.19258         1.95485
O         23.43482        36.69641        -1.43045
O         31.30081        44.78135         0.73090
O         19.71421        12.94371        -1.96120
O         31.47766        42.22885         1.37180
O         25.34688        52.98802        -2.15162
O         20.82352        55.30717        -1.07715
O         22.42598         9.91907         1.95933
O         36.51683        33.56486         1.99206
O         12.07268        34.77664        -1.11421
O         17.91762        22.98465        -1.74946
O         19.66570        22.59126         1.59369
O         39.09441        30.97102         1.12061
O         25.40210        13.92498        -1.08888
O         22.55271        39.93801         1.80616
O         32.47963        26.72656         1.52660
O         13.84219        24.78334         1.80958
O         10.29320        29.29967        -1.48624
O         19.91058        44.51657         1.30773
O         25.78995        49.91209        -2.81473
O         23.52764        45.73040        -2.30145
O         26.91491        52.38826         1.18601
O         29.33444        51.06349         1.15906
H         28.42660        51.42517         1.40012
O         24.88906        42.88389         1.82664
H         24.26366        43.56535         2.16937
O         20.58034        29.47347         2.65243
H         21.00972        28.76213         3.18676
O         17.81034        31.11661        -1.50266
H         18.13261        31.79371        -2.14101
O          8.32526        35.79492         2.13666
H          7.68811        36.40140         2.56914
O          8.08351        33.12939         2.14644
H          8.15515        34.07767         2.44065
O          9.33577        35.44799        -1.38040
H         10.19495        35.15175        -1.76512
O         24.98712        27.19328        -1.26465
H         25.52267        27.72975        -1.88719
O         23.63105        48.90024         0.16139
H         22.88078        48.99011         0.78511
O         25.20207        41.60649        -1.58020
H         25.97421        41.81297        -2.15093
O         24.06486        13.03725         2.20920
H         23.82276        12.24944         2.74254
O         32.93071        41.55680        -1.92709
H         33.39928        42.29914        -2.38612
O         17.46964        31.34592         2.10973
H         16.91643        30.83695         2.73793
O         15.78590        20.95135        -2.68805
H         16.17139        20.23785        -3.24867
O         18.67455        25.32936        -1.54200
H         18.24084        24.72952        -2.19770
O         15.74130        35.82142         2.25717
H         16.53247        36.27128         2.62265
O         39.05500        29.79468        -2.39510
H         38.15354        30.17158        -2.52142
O         19.12894         9.52160         1.88072
H         20.00115         9.37927         2.30931
O         32.21332        35.15407        -0.77206
H         31.45087        34.70692        -1.19801
O         21.03062        32.81937        -1.81482
H         20.20654        33.00128        -2.32509
O         25.23094        24.51108        -1.18410
H         25.10309        25.45113        -1.48325
O         28.14403        31.55745         2.15349
H         27.33418        31.96653         2.52614
O         13.00020        31.82332         2.30034
H         13.65330        32.46530         2.65288
O         16.72149        46.57152        -2.35436
H         16.70073        45.61792        -2.58395
O         14.56393        35.70338        -1.20558
H         13.77108        35.30563        -1.64025
O         33.09760        35.94049         2.68050
H         33.65308        36.68740         3.01219
O         35.89462        31.10318         2.24145
H         36.40906        31.81652         2.69153
O         28.15121        23.51983         2.40512
H         28.12798        22.58953         2.81834
O         17.78735        50.55511        -2.29309
H         17.01493        49.99831        -2.53077
O         18.94291        19.10772        -2.59050
H         18.16666        19.18222        -3.19150
O         24.60488        57.30800        -1.43133
H         23.67302        57.47265        -1.71240
O         27.33260         9.48836         2.32863
H         27.56472        10.39297         2.65132
O         30.67709        24.05088         1.99799
H         29.74018        24.14704         2.36485
O         31.63230        30.84846         2.35642
H         32.42996        30.44511         2.75926
O         13.13963        35.61174         2.22263
H         13.97274        35.89011         2.67444
O         24.00378        47.96675        -3.36832
H         24.25459        48.81798        -3.79433
O         14.57460        44.11837         1.98633
H         14.57909        45.08221         2.16876
O         25.03744        26.99981         2.40198
H         24.45868        26.52703         3.03809
O         22.68863        40.14100        -1.45605
H         23.38709        39.50378        -1.71262
O          6.51866        30.91575         1.71730
H          6.90148        31.71201         2.16511
O         20.25449        54.14708         2.40167
H         19.61295        54.25965         3.13503
O         15.67264        27.52168        -1.46092
H         16.45171        28.04001        -1.75829
O         22.31001        13.66869        -2.06462
H         22.16945        14.55771        -2.46972
O         30.86072        20.36524         2.76163
H         29.92752        20.45395         3.12243
O         30.28382        23.59614        -1.43305
H         31.15673        23.37429        -1.84566
O         28.06205        18.40184         2.81091
H         28.07478        19.25913         3.32438
O         32.84780        23.87788        -1.97226
H         33.77781        23.70693        -2.25567
O         31.68482        33.81463         2.65674
H         32.38608        34.37777         3.06310
O         34.69162        43.57327        -2.37776
H         35.52550        43.06584        -2.47132
O         26.70331        35.29185         2.37288
H         27.55915        35.02268         2.77042
O         18.14957        41.70972        -1.91347
H         18.86875        41.10728        -2.20225
O         16.20535        23.97218         1.77047
H         15.36328        23.94765         2.29344
O         30.76855        45.35434        -2.79853
H         30.58249        46.08888        -3.42023
O         34.48795        42.80475         1.18600
H         34.33053        41.99093         1.70982
O         23.13139        50.33215        -3.15027
H         22.75267        51.19849        -3.43637
H          5.08618        31.21637        -0.89020
H          5.16008        33.65852        -0.97351
H          7.39005        26.84477        -0.51555
H          6.10765        28.93166        -0.08450
H          6.16651        35.79933        -0.24929
H          7.31270        38.04842         0.38843
H          9.95137        22.52469        -0.72328
H          8.65978        24.78687        -0.85789
H          8.56873        40.17110         0.31463
H          9.81028        42.31745         0.20789
H         12.42724        18.33797        -0.76181
H         11.17845        20.42800        -0.63687
H         11.01391        44.40615         0.01775
H         12.23201        46.56702        -0.14766
H         14.86470        14.07624        -1.06672
H         13.65376        16.21524        -1.00274
H         13.51268        48.70009        -0.06042
H         14.80369        50.74056         0.32999
H         17.19378         9.83183        -0.10387
H         16.05552        11.92456        -0.78125
H         16.13918        52.76770         0.76538
H         17.46390        54.69888         1.38852
H         19.81256         5.62498        -0.67280
H         18.54211         7.68460        -0.35412
H         18.92347        56.68452         2.23427
H         20.18326        58.69915         2.70870
H         23.23053         2.25804        -0.48952
H         21.07512         3.46120        -0.64605
H         23.76832        61.55747         3.96138
H         21.53507        60.53288         3.56568
H         25.37906         3.45547        -0.20813
H         26.63437         5.60813        -0.03561
H         26.88062        58.74324         1.66929
H         25.81379        60.55960         2.93784
H         27.83849         7.62019         0.39742
H         28.67635         9.87217        -0.64753
H         29.09331        54.98463        -0.52226
H         27.99903        56.95194         0.49504
H         30.44792        12.13081        -0.34089
H         31.61428        14.14588         0.12546
H         31.54152        50.60684        -0.37188
H         30.22835        52.79645        -1.05646
H         32.83525        16.27072         0.26724
H         34.06012        18.37378         0.42986
H         34.08781        46.44945        -1.44763
H         32.79049        48.61225        -0.87416
H         35.31769        20.55867         0.54722
H         36.36381        22.77528         1.17337
H         36.61112        42.10994        -0.71385
H         35.33031        44.41614        -0.57254
H         38.06963        24.96317         0.25372
H         39.00883        26.93335        -0.39884
H         38.84209        37.84149        -0.87845
H         37.68988        39.93072        -0.83966
H         40.15292        28.96259        -0.84846
H         41.39320        31.24397        -1.19836
H         41.32039        33.70385        -1.07881
H         40.09686        35.76448        -0.81569
