         324
 CSIRO Nanostructure Databank - Neutral Graphene Oxide Data Set
C          1.26117         3.56086        -1.37217
C          0.06344         4.25535        -1.37454
C          1.25101         6.38583        -1.39081
C          0.04824         5.65952        -1.38693
C          1.22816         7.87922        -1.51871
C          0.07051         8.64390        -0.99752
C          1.16172        10.80667        -1.56819
C          0.05741         9.98654        -0.94170
C          1.20467        12.29038        -1.15475
C         -0.00431        12.94659        -0.61932
C          1.25751        14.95651         0.04565
C          0.03005        14.20400        -0.11584
C          1.25217        16.30854         0.50297
C          0.00716        16.99313         0.86008
C          1.11034        19.16438         0.64134
C         -0.07807        18.33549         0.97239
C          1.07855        20.67402         0.54438
C         -0.12526        21.44871         0.94601
C          1.13261        23.57942         1.08369
C         -0.10585        22.76227         1.24788
C          1.13114        25.10162         1.05633
C         -0.11204        25.91065         1.13073
C          1.11441        27.90254         0.36076
C         -0.09975        27.21811         0.74958
C          1.13411        29.23923        -0.10665
C          3.72413         3.54966        -1.30740
C          2.50448         4.25850        -1.40461
C          3.74239         6.42839        -1.22268
C          2.47519         5.69090        -1.43408
C          3.78705         7.93275        -1.24896
C          2.53060         8.66878        -1.58586
C          3.75351        10.86265        -1.43411
C          2.49909        10.11670        -1.35281
C          3.80677        12.25164        -0.95747
C          2.52101        12.99302        -0.87922
C          3.71162        14.97663         0.03843
C          2.49526        14.31965        -0.22025
C          3.71082        16.34853         0.40872
C          2.46496        17.01374         0.59406
C          3.67079        19.21210         0.68397
C          2.41286        18.47085         1.02339
C          3.70657        20.66556         0.66403
C          2.39216        21.42626         0.55966
C          3.58866        23.27847         1.59558
C          2.39423        22.77147         1.17687
C          3.61095        25.44022         1.54842
C          2.37804        25.92648         1.10792
C          3.59832        27.90009         0.32978
C          2.35898        27.23482         0.55337
C          3.59234        29.25299        -0.13608
C          2.33024        29.89028        -0.35791
C          6.27323         3.54364        -1.20779
C          5.01419         4.17606        -1.51786
C          6.28823         6.45678        -1.14364
C          5.04049         5.76600        -1.50353
C          6.27552         7.90613        -1.06974
C          5.09494         8.61175        -1.30498
C          6.31832        10.78873        -0.99028
C          5.10566        10.07313        -1.42092
C          6.27198        12.16240        -0.74712
C          5.01185        12.87190        -0.68130
C          6.26863        15.00214         0.11129
C          4.99027        14.23174        -0.06047
C          6.20970        16.45425         0.42805
C          4.96387        17.05338         0.60428
C          6.18658        19.24461         1.15179
C          4.90070        18.47877         0.97833
C          6.18128        20.71713         1.07422
C          4.95041        21.38684         1.03594
C          6.08960        23.59193         1.23278
C          4.90579        22.77844         1.27230
C          6.08833        25.08296         1.13322
C          4.86649        25.89732         1.10662
C          6.05124        27.92503         0.36655
C          4.84248        27.22459         0.54872
C          6.05487        29.27415        -0.09805
C          4.81802        29.91504        -0.35376
C          8.69442         3.56400        -0.98709
C          7.47013         4.26841        -1.10483
C          8.70187         6.40937        -0.68670
C          7.47471         5.72751        -1.03146
C          8.73935         7.86672        -0.65231
C          7.53113         8.62496        -0.92360
C          8.81521        10.77270        -0.85471
C          7.53796        10.03057        -0.89707
C          8.83697        12.21862        -0.57081
C          7.54570        12.93767        -0.71935
C          8.81374        15.14465        -0.26455
C          7.51839        14.41219        -0.47991
C          8.73685        16.52846         0.30448
C          7.43615        17.17866         0.61202
C          8.65147        19.31746         1.03136
C          7.45561        18.54626         0.92196
C          8.65374        20.73035         1.09759
C          7.38126        21.45910         1.11731
C          8.59314        23.59081         0.88668
C          7.31429        22.88111         1.12466
C          8.57870        25.07879         0.74822
C          7.28003        25.76726         0.89308
C          8.59556        27.96544         0.43881
C          7.29373        27.24458         0.74892
C          8.53072        29.28977        -0.22446
C          7.29475        29.93026        -0.37183
C         11.13577         3.53505        -0.63243
C          9.90550         4.22957        -0.71304
C         11.06346         6.27599         0.06992
C          9.85902         5.65276        -0.47329
C         11.08735         7.81157         0.15627
C          9.93288         8.53396        -0.36023
C         11.26504        10.71012        -0.02643
C         10.09708         9.97990        -0.57849
C         11.24535        12.11076         0.01758
C         10.03072        12.85376        -0.24370
C         11.30868        15.02771         0.42790
C         10.09902        14.35248        -0.19749
C         11.24010        16.44203         0.86592
C          9.93865        17.09960         0.97630
C         11.18883        19.30813         1.28959
C          9.90873        18.59635         1.28241
C         11.15586        20.74972         1.22217
C          9.89591        21.41774         1.17065
C         11.15374        23.65783         1.21299
C          9.86364        22.89124         1.26386
C         11.18772        25.18309         1.03095
C          9.85198        25.82913         0.70526
C         10.98883        27.79037        -0.23612
C          9.84150        27.17112         0.30795
C         10.95398        29.14235        -0.71066
C          9.72885        29.86350        -0.69152
C         13.61953         3.47940        -0.34999
C         12.36994         4.20041        -0.37826
C         13.57052         6.33527         0.07720
C         12.33858         5.57015        -0.04976
C         13.53202         7.75453         0.48420
C         12.39093         8.50096         0.27167
C         13.63366        10.56066         0.74337
C         12.42877         9.93645         0.33342
C         13.56064        11.99880         1.03584
C         12.55884        12.84944         0.27689
C         13.51972        14.86294         1.59876
C         12.39600        14.20275         0.91929
C         13.57703        16.38252         1.68427
C         12.37007        17.13605         1.26403
C         13.66575        19.26558         1.30057
C         12.37880        18.58057         1.35778
C         13.63965        20.71546         1.06391
C         12.38888        21.45725         1.13877
C         13.54059        23.56386         0.54979
C         12.40153        22.88681         0.97579
C         13.46357        24.91758         0.03017
C         12.29327        25.63754         0.11035
C         13.45918        27.71637        -0.66801
C         12.14741        26.92881        -0.66162
C         13.32758        29.00645        -1.45111
C         12.10534        29.71574        -1.31433
C         16.07461         3.39837         0.05242
C         14.82781         4.09164        -0.04399
C         16.08696         6.19039         0.63226
C         14.87755         5.56348         0.08288
C         16.01352         7.55186         1.19440
C         14.74046         8.37195         1.05267
C         16.02208        10.52451         1.39788
C         14.79525         9.84587         1.11683
C         16.07386        11.92605         1.47853
C         14.80302        12.65896         1.57046
C         16.12864        14.86664         1.49031
C         14.83386        14.14321         1.70389
C         16.11204        16.33207         1.25124
C         14.92787        17.11494         1.84278
C         16.15479        19.24928         1.21832
C         14.85597        18.55826         1.36531
C         16.10981        20.69543         0.75005
C         14.80317        21.37797         0.72499
C         15.77387        23.28411        -0.55277
C         14.87698        22.87541         0.59540
C         15.74790        24.69644        -0.96544
C         14.60601        25.47889        -0.71419
C         15.54744        27.29606        -2.04093
C         14.56301        26.82250        -1.16989
C         15.57656        28.70610        -2.63172
C         14.35137        29.48273        -2.24286
C         18.53936         3.38385         0.24928
C         17.27365         4.07202         0.28203
C         18.53808         6.18032         0.83011
C         17.27873         5.48867         0.60892
C         18.56222         7.57477         1.08477
C         17.30678         8.26821         1.43784
C         18.56218        10.49180         1.24979
C         17.30008         9.77977         1.54209
C         18.54048        11.90793         1.10789
C         17.30778        12.65154         1.28681
C         18.50569        14.75499         0.76292
C         17.32575        14.05821         1.16544
C         18.46392        16.16657         0.51692
C         17.25808        16.94323         0.82957
C         18.32936        19.02380        -0.08864
C         17.44968        18.44236         1.00734
C         18.37174        20.49341        -0.31857
C         17.23249        21.24397        -0.04225
C         18.23100        23.19367        -1.31255
C         17.03801        22.50083        -0.78490
C         18.16047        24.56093        -1.68517
C         16.84704        25.21681        -1.69154
C         18.39853        27.55138        -2.29178
C         16.61121        26.43485        -2.35134
C         18.05813        28.86963        -1.84952
C         16.81291        29.46482        -2.15112
C         19.71864         4.04912         0.43027
C         20.97246         6.17834         0.78960
C         19.75402         5.46821         0.68430
C         20.98290         7.55344         0.95974
C         19.77927         8.29259         1.09739
C         20.96322        10.48953         0.90735
C         19.76691         9.76066         1.12806
C         20.95287        11.86121         0.75509
C         19.74787        12.60296         0.82338
C         20.87753        14.73357         0.18016
C         19.72394        14.03146         0.59103
C         20.81401        16.08194        -0.13174
C         19.61314        16.80571         0.00354
C         20.67013        18.91809        -1.05116
C         19.50663        18.19429        -0.51974
C         20.62311        20.25938        -1.30356
C         19.48103        21.07242        -1.00522
C         20.64245        23.20938        -1.63774
C         19.46571        22.49031        -1.31475
C         20.59949        24.58345        -1.81734
C         19.38137        25.29546        -1.83229
C         20.35928        27.44765        -0.92469
C         19.41907        26.77046        -1.73239
C         20.19376        28.81776        -0.65401
C         19.05950        29.51400        -1.05663
O          9.71113        17.57943         2.33300
O          5.74268        14.19604         1.22507
O          1.12434        24.29304        -0.21538
O          3.17877        21.26735        -0.64111
O          3.69213         7.18558         0.03700
O         14.42536         6.23561        -1.15749
O         15.61871        14.54964         2.86056
O          5.05922         5.04335        -2.72622
O          8.05806        27.95866         1.80210
O         15.83912        22.38242        -1.68903
O         13.21676        15.57685         2.85461
O         17.58473        26.91890        -3.25349
O         16.42223        20.32996         2.15997
O         17.37054         8.92843         2.74014
O          0.97612        19.82345        -0.64565
O         15.09263         7.66485         2.32302
O          7.45976        13.92508        -1.84875
O         10.82776         6.98366         1.34071
O          9.73810        10.40007        -1.93365
O         18.27441        18.32023        -1.35917
O          3.56960        24.38047         2.45360
O          8.93101        16.31312        -1.13809
O         13.74090        12.17433         2.47141
O          1.80247         8.26668        -2.80717
O          4.53030        10.58921        -2.66129
O          1.85871        13.07559        -2.20965
O          8.61730        24.14878        -0.47617
O         11.12057        14.88209        -1.10191
O          5.45526        18.75704         2.35147
O         10.50297        23.36348         2.50749
O         11.54839        25.72837         2.33900
H         11.08756        25.17637         3.01220
O         15.57562        23.36896         1.78822
H         15.10632        23.02739         2.57888
O         18.23372        18.56091         2.22183
H         17.62527        18.45413         2.98487
O         13.18798        13.06371        -1.03473
H         12.56077        13.63639        -1.54353
O         15.58500        28.61038        -4.07976
H         16.36927        28.06890        -4.32778
O         11.89227        26.56232        -2.05184
H         11.04691        26.06723        -2.09138
O          0.91685        10.79541        -2.99920
H          1.52742        11.45962        -3.39394
O          2.37230        18.48129         2.50009
H          3.24943        18.17954         2.82738
O         13.75128        28.06601         0.70523
H         14.59551        28.56132         0.72784
O         15.20928        17.21958         3.25930
H         15.01320        16.32883         3.64399
H          1.26630         2.46198        -1.35409
H         -0.88845         3.70648        -1.36547
H         -0.91507         6.18687        -1.40071
H         -0.75328         8.07661        -0.53830
H         -0.80914        10.49040        -0.49036
H         -0.96703        12.42004        -0.67370
H         -0.91459        14.65979         0.20994
H         -0.89226        16.38793         1.04034
H         -1.04282        18.81357         1.19630
H         -1.07855        20.90161         1.00384
H         -1.04439        23.26644         1.52412
H         -1.06337        25.41918         1.38172
H         -1.04073        27.78878         0.73467
H          0.18195        29.76763        -0.26102
H          3.70031         2.48499        -1.03251
H          2.32087        30.92885        -0.71932
H          6.27999         2.46790        -0.97994
H          4.81691        30.95203        -0.72002
H          8.69466         2.47140        -1.11098
H          7.26768        30.93956        -0.80880
H         11.14342         2.44998        -0.81360
H          9.70112        30.87383        -1.12667
H         13.59584         2.39465        -0.53295
H         12.01679        30.71464        -1.76919
H         16.09061         2.31038        -0.11213
H         14.20588        30.44492        -2.76069
H         18.54066         2.30387         0.04120
H         16.66163        30.50166        -1.80868
H         20.67336         3.50655         0.36861
H         21.92237         5.63194         0.70017
H         21.95290         8.06610         1.00237
H         21.92339         9.96339         0.82991
H         21.90647        12.37392         0.57413
H         21.83377        14.20999         0.05428
H         21.71945        16.58147        -0.50059
H         21.60073        18.37103        -1.25541
H         21.50722        20.73605        -1.74929
H         21.61537        22.70065        -1.65702
H         21.53929        25.13580        -1.95863
H         21.19799        26.89918        -0.47408
H         20.94446        29.32939        -0.03557
H         18.90584        30.55334        -0.73407
