         320
 CSIRO Nanostructure Databank - Neutral Graphene Oxide Data Set
C         30.20580        31.60761         0.42012
C         30.25911        32.84001         0.42451
C         30.35682        36.05861         0.61109
C         30.43741        37.26399         0.84466
C         30.75163        40.53779         1.07423
C         31.14840        41.55324         1.66648
C         32.56377        28.78632         0.37108
C         31.48665        29.34985         0.17855
C         32.63677        31.53249         0.27411
C         31.31259        30.78436        -0.18592
C         32.67579        32.89070         0.18749
C         31.36401        33.72935        -0.10102
C         32.67201        35.85845         0.08954
C         31.47759        35.05321         0.64319
C         32.67929        37.38553         0.03516
C         31.59992        38.20601         0.78667
C         32.78495        40.38875        -0.38946
C         31.28976        39.54681         0.11703
C         33.05447        41.74691         0.23929
C         32.31120        42.31750         1.26716
C         33.78995        44.26486         1.21234
C         32.81608        43.60745         1.63311
C         35.40854        27.28481        -0.03323
C         35.16123        28.55723         0.65235
C         33.86958        29.26093         0.81301
C         35.14757        31.42321         0.34415
C         33.83961        30.81961         0.92797
C         35.12985        32.93927         0.54013
C         33.95293        33.61957         0.38101
C         35.22278        35.90912         0.37207
C         33.95760        35.10240         0.11018
C         35.24870        37.33360        -0.20349
C         33.98849        38.08547        -0.26425
C         35.23891        40.15896        -0.90636
C         34.08160        39.58807        -0.04967
C         35.29684        41.69229        -0.81351
C         34.25975        42.41198        -0.29108
C         35.51268        44.62405        -0.66378
C         34.22279        43.95767        -0.23525
C         36.03810        45.80227         0.03632
C         37.78509        27.49924        -0.53331
C         36.44443        26.82347        -0.50937
C         37.72125        28.46047         0.71932
C         36.46354        29.33533         0.68394
C         37.64977        31.51299         1.17741
C         36.43316        30.68938         0.75820
C         37.69115        32.86463         0.44606
C         36.42642        33.71516         0.78267
C         37.74278        35.75972        -0.14818
C         36.40756        35.00560        -0.06159
C         37.74302        37.25728        -0.22017
C         36.51858        38.10726         0.10367
C         37.81521        40.07990        -1.15621
C         36.54287        39.45013        -0.59507
C         37.78470        41.60658        -0.77527
C         36.55231        42.30452        -1.44470
C         37.97025        44.49601        -1.46084
C         36.62132        43.82393        -1.30163
C         38.41244        46.29408         0.68765
C         36.99026        46.42773         0.49054
C         40.31335        24.68984        -1.23367
C         39.26300        25.32928        -0.97161
C         40.27405        27.30037        -0.28029
C         39.02797        26.65845        -0.52480
C         40.30124        28.57835         0.48750
C         39.00140        29.28025         0.82282
C         40.27199        31.51330         0.83882
C         38.98866        30.75997         1.02830
C         40.25005        32.87493         0.79459
C         38.95528        33.67611         0.91856
C         40.27653        35.84353         0.47311
C         39.04326        35.03896         0.19245
C         40.20441        37.37538         0.62716
C         39.08030        37.95596        -0.21186
C         40.41213        40.17828        -0.63839
C         39.11322        39.37051        -0.69961
C         40.26445        41.66726        -0.43900
C         39.14146        42.33032        -0.84882
C         40.37526        44.47911        -0.83411
C         39.18233        43.80539        -0.94866
C         40.62755        45.93423        -0.45694
C         39.37419        46.77780        -0.16493
C         40.41113        48.67844        -1.32863
C         39.46164        48.02569        -0.85454
C         42.94923        24.79869        -1.20461
C         41.62512        25.16284        -0.58215
C         42.59948        27.70937        -1.03565
C         41.50434        26.71564        -0.64213
C         42.91874        28.53157         0.33914
C         41.61017        29.25545         0.76836
C         42.81302        31.53650         0.61843
C         41.60569        30.76819         1.15388
C         42.71425        33.05646         0.55114
C         41.49402        33.62129         1.27565
C         42.71473        35.99381         1.26508
C         41.44165        35.18105         1.16575
C         42.71438        37.54095         1.10650
C         41.52179        38.07474         0.32209
C         42.82137        40.28111         0.17250
C         41.44589        39.59110         0.34880
C         42.81616        41.75350         0.08491
C         41.48389        42.48137         0.04228
C         42.93136        44.46018        -0.71217
C         41.65077        43.65603        -0.90261
C         42.92515        45.75714        -1.45742
C         41.62828        46.50504        -1.49019
C         42.94361        48.49039        -2.01016
C         41.50312        48.13908        -2.16136
C         43.82994        25.66904        -1.33425
C         44.79411        27.69595        -2.46011
C         43.86399        27.05691        -1.65561
C         45.33922        28.87938        -0.00250
C         44.10082        29.44988         0.19602
C         45.27194        31.65304         0.30633
C         43.99817        30.90836         0.29176
C         45.26002        33.16657         0.33314
C         44.01058        33.76058         0.94953
C         45.28766        35.96496         0.67132
C         44.03518        35.23874         1.18889
C         45.26781        37.45076         1.08915
C         43.99798        38.11131         0.47004
C         45.35266        40.25675         0.05705
C         44.09254        39.64518         0.71923
C         45.36099        41.82125         0.16235
C         44.04619        42.56541         0.51909
C         45.27501        44.79898         0.09799
C         44.04349        43.95984        -0.10930
C         45.10843        46.30498        -0.39200
C         44.31139        46.40200        -1.70414
C         43.97391        47.81619        -2.07051
C         47.29503        27.95195        -1.90988
C         46.22332        27.51194        -2.33823
C         47.78536        28.89161        -0.81368
C         46.45642        29.71025        -0.57489
C         47.78083        31.70913         0.30879
C         46.48423        31.03497         0.13065
C         47.80439        33.22690         0.26703
C         46.55520        33.74037         0.99701
C         47.78037        35.91542         1.02899
C         46.58512        35.25909         1.00724
C         47.86243        37.39343         0.67844
C         46.55882        38.17002         0.72155
C         47.76992        40.30509         1.03698
C         46.59397        39.51635         0.53615
C         47.85799        41.77141         0.63437
C         46.64057        42.59444         0.35258
C         47.90747        44.92977         0.10071
C         46.61176        44.14370         0.43541
C         47.54534        46.11369        -0.60956
C         46.51438        46.79748        -0.59577
C         49.82515        29.91597        -2.17511
C         48.87170        29.88638        -1.15126
C         50.19705        32.00192        -0.45903
C         49.05504        31.06746        -0.29971
C         50.28181        33.15525         0.28948
C         49.09879        33.84006         0.76320
C         50.32312        35.95635         1.16771
C         49.07225        35.19555         1.08168
C         50.31884        37.32996         1.14841
C         49.01685        38.07362         1.44190
C         50.26227        40.24095         1.32313
C         49.09746        39.56746         1.13584
C         50.33141        41.65595         0.76719
C         49.01790        42.35085         1.04764
C         50.50677        44.69194         0.31305
C         49.11404        44.60474         0.66630
C         50.81497        30.66908        -2.38318
C         51.94766        32.98158        -1.82627
C         51.44962        31.63608        -1.39755
C         52.11896        33.95319        -1.06334
C         51.68080        33.80949         0.45495
C         52.71440        36.06935         1.07103
C         51.60553        35.09201         1.32686
C         52.72666        37.29679         1.04320
C         51.57385        38.21693         0.87924
C         52.64554        40.42187         1.69350
C         51.50927        39.44237         1.79769
C         52.60389        41.65463         1.50605
C         51.58841        42.53527         1.07395
C         51.37459        43.86420         0.77209
O         38.06940        45.51579        -2.12373
O         33.25661        35.34875        -1.13747
O         37.69762        36.46070        -1.43998
O         46.06876        42.31866        -1.00896
O         41.99744        45.65989        -2.61516
O         48.67525        30.95222         1.12080
O         41.00541        28.40126         1.78399
O         52.53086        32.94810         1.04335
O         40.07922        35.20248        -0.83487
O         45.78269        44.72529         1.49019
O         48.95801        43.59445         1.65139
O         39.11110        29.84273         2.17159
O         34.48241        28.59798         1.94358
O         44.20497        34.28889         2.28350
O         39.42550        38.24167        -1.59092
O         41.87319        35.72708         2.43340
O         32.97061        37.81558        -1.31647
O         35.64501        44.57261        -2.10290
O         45.14443        37.58041         2.48518
O         38.88040        33.90765         2.30335
O         45.20370        33.46286        -1.09601
H         44.25071        33.60019        -1.34088
O         32.11093        38.44378         2.10531
H         31.40410        38.86278         2.64361
O         50.37765        41.48191        -0.67331
H         50.96004        40.70786        -0.86311
O         41.74892        30.77975         2.58461
H         40.98622        30.26738         2.94351
O         45.01105        45.69471        -2.70541
H         44.55043        45.80884        -3.56137
O         47.40582        40.43881         2.47215
H         47.44483        39.53042         2.86511
O         36.53775        42.05333        -2.85986
H         35.93660        42.71678        -3.26593
O         51.32570        39.00207         3.13576
H         51.47199        39.75330         3.74689
O         41.59032        24.77125         0.76374
H         41.65423        23.79572         0.81831
O         42.52457        33.39299        -0.87074
H         41.67815        33.89396        -0.98997
O         43.24302        27.53200         1.31454
H         42.40731        27.32742         1.81106
O         45.61675        27.59541         0.30907
H         44.83201        27.20202         0.77981
O         52.40629        30.97564        -0.66435
H         52.72563        31.63898         0.04189
O         35.19541        36.16241         1.78872
H         35.99770        36.67849         2.05180
O         44.40847        47.00496         0.59989
H         44.85832        46.86631         1.46004
O         35.07355        31.21323        -1.09132
H         35.87559        31.62295        -1.48918
O         40.95146        40.08559        -2.00343
H         40.19806        40.15515        -2.63286
O         43.82267        37.88965        -0.92060
H         44.52671        38.36790        -1.42278
O         37.76453        32.57317        -0.95162
H         37.37838        33.33888        -1.45513
O         31.23376        30.93039        -1.58779
H         30.50493        30.37143        -1.92815
O         51.61024        34.64481         2.66442
H         52.15987        33.81952         2.66239
O         41.01145        40.06766         1.65772
H         41.45782        39.46756         2.31800
O         48.20343        28.19358         0.33410
H         47.49163        27.56890         0.60164
O         41.12913        48.02735        -3.48028
H         41.73713        47.41275        -3.94137
O         34.98603        39.81530        -2.29704
H         35.70084        40.25100        -2.82744
O         41.19501        42.93701         1.36854
H         41.17425        42.13976         1.95018
O         43.10274        40.97802        -1.15509
H         42.29085        40.91351        -1.77145
O         48.72743        37.93938         2.85200
H         49.56415        38.13160         3.34012
O         41.72215        43.05162        -2.22442
H         41.72413        43.80375        -2.86723
O         36.46578        34.10122         2.15122
H         36.50057        33.27851         2.69882
O         44.40484        28.75291        -3.21858
H         45.19750        29.25685        -3.50408
O         37.46929        41.68251         0.63967
H         38.11710        41.14858         1.14839
O         51.50518        38.71410        -0.46638
H         51.83309        38.01564        -1.07179
O         48.19744        37.40916        -0.74550
H         49.00873        36.87082        -0.87577
O         41.57514        33.32729         2.66483
H         40.70523        33.60034         3.04918
O         31.76021        34.75907         2.00529
H         31.12567        34.07835         2.31776
O         36.65834        38.37605         1.56254
H         35.92398        39.00640         1.79364
O         42.59831        38.04752         2.45358
H         43.47920        37.80618         2.88319
O         36.10465        34.56372        -1.40805
H         36.25532        35.33565        -2.00486
O         46.10157        30.16120        -1.93518
H         45.40798        30.85357        -1.85455
O         37.47745        31.74950         2.58949
H         38.17739        32.43181         2.83292
O         30.52769        39.33399        -1.01919
H         30.48467        40.16503        -1.53838
O         32.60161        40.54611        -1.77029
H         32.79670        39.68420        -2.20743
O         41.39430        45.83250         0.76772
H         40.84518        45.35856         1.43341
O         43.95852        42.70026         1.94045
H         44.61873        43.37961         2.22133
O         44.17721        39.96493         2.10192
H         44.71379        39.23237         2.53712
O         38.74381        45.25389         1.51875
H         37.95081        44.92136         1.98578
O         46.63924        33.21836         2.32826
H         45.89032        33.59854         2.84780
O         45.32280        39.97054        -1.36874
H         45.95607        40.60269        -1.78938
O         37.85822        28.34122        -1.69056
H         37.82998        27.77996        -2.49355
O         33.19949        44.38422        -1.10788
H         33.32172        45.33167        -1.32139
O         42.04622        28.68775        -1.92110
H         42.03726        28.32749        -2.83201
O         37.82937        39.97055        -2.59970
H         38.05765        39.03010        -2.79639
O         33.75661        31.12917         2.32189
H         34.12814        30.36932         2.82633
O         45.23529        35.92600        -0.77552
H         46.05879        36.34303        -1.11477
O         37.67579        27.60145         1.86178
H         37.88521        28.14843         2.65083
O         31.16986        33.90739        -1.47478
H         31.16726        33.01918        -1.89833
O         47.80012        33.59715        -1.13380
H         46.86734        33.67034        -1.45519
O         34.38704        39.83013         1.34347
H         33.66322        39.41690         1.88523
O         39.84660        37.59817         2.01195
H         40.56746        37.19711         2.56270
