         234
 CSIRO Nanostructure Databank - Neutral Graphene Oxide Data Set
C          1.12988         2.16290         0.74681
C          1.13389         3.54303         0.65322
C          2.33625         1.44395         0.66418
C          2.34393         4.25723         0.46289
C          1.16275         6.44962         0.32278
C          1.17554         7.81453         0.15406
C          2.36651         5.69403         0.32335
C          2.39269         8.52733        -0.01282
C          1.19354        10.69709        -0.32964
C          1.20401        12.06509        -0.51379
C          2.39694         9.95774        -0.19978
C          2.41802        12.79617        -0.53539
C          1.29112        14.99880        -1.02855
C          1.31731        16.41583        -1.17657
C          2.42298        14.23276        -0.77886
C          2.47859        17.15583        -1.03389
C          2.57512        18.59256        -1.20288
C          3.54482         2.10301         0.48581
C          3.56952         3.52822         0.37547
C          4.80714         1.27181         0.40884
C          4.79959         4.23504         0.18938
C          3.60161         6.38181         0.16861
C          3.61884         7.80523         0.01207
C          4.83169         5.63402         0.12973
C          4.86905         8.50338        -0.13376
C          3.63657        10.65804        -0.24845
C          3.63763        12.08208        -0.36691
C          4.87576         9.92736        -0.21651
C          4.89545        12.79463        -0.23877
C          3.72784        14.90554        -0.77371
C          3.74353        16.42515        -0.87481
C          4.90696        14.17884        -0.27593
C          4.89512        17.17620        -0.30873
C          3.74345        19.28542        -1.08137
C          4.95132        18.66401        -0.49125
C          6.06066         2.10681         0.68543
C          6.04091         3.42849        -0.10470
C          7.31994         1.33574         0.40206
C          7.33166         4.19580         0.07901
C          6.08772         6.34828        -0.00346
C          6.08796         7.74091        -0.13025
C          7.34176         5.61060         0.01894
C          7.37058         8.43142        -0.39497
C          6.11045        10.66449        -0.24356
C          6.13791        12.05387        -0.14396
C          7.37455         9.94041        -0.49078
C          7.40422        12.77428        -0.03015
C          6.15188        14.91952        -0.02163
C          6.16220        16.41001        -0.08549
C          7.42905        14.17932        -0.01768
C          7.43987        17.09065        -0.44561
C          6.30086        19.29198        -0.58157
C          7.44909        18.57273        -0.54687
C          8.51801         2.00070         0.18699
C          8.53083         3.46333         0.13513
C          9.74505         1.29241         0.05642
C          9.78324         4.14181         0.13416
C          8.59356         6.29906         0.03672
C          8.64026         7.73150        -0.09657
C          9.81026         5.56746         0.11964
C          9.84838         8.41514         0.01659
C          8.67350        10.67575        -0.34331
C          8.64713        12.09764         0.05188
C          9.93484         9.89040        -0.11144
C          9.83090        12.78022         0.42350
C          8.63588        14.88116         0.19880
C          8.70044        16.31638        -0.18476
C          9.80195        14.19351         0.57762
C          9.91176        17.08417         0.14308
C          8.81058        19.17582        -0.85187
C          9.95815        18.47356        -0.14041
C         10.98348         1.96579        -0.02072
C         10.99985         3.40221         0.08048
C         12.20560         1.27048        -0.19252
C         12.24371         4.08966         0.07837
C         11.07012         6.25263         0.20138
C         11.07804         7.70022         0.22893
C         12.26523         5.51594         0.22705
C         12.27282         8.41707         0.38016
C         11.11751        10.59646         0.43612
C         11.08883        12.03895         0.62332
C         12.28097         9.84100         0.55338
C         12.24894        12.73342         0.93955
C         10.95017        14.95546         1.24241
C         10.93182        16.46850         0.90142
C         12.30273        14.26718         0.84527
C         11.91344        17.32685         1.41797
C         11.11763        19.19540         0.14479
C         12.17312        18.63635         0.91431
C         13.43362         1.95704        -0.29890
C         13.44666         3.36986        -0.12638
C         14.67153         1.24425        -0.49995
C         14.68137         4.13354        -0.39594
C         13.54623         6.19806         0.50289
C         13.54107         7.69373         0.58377
C         14.87766         5.47405         0.28777
C         14.81493         8.42069         0.38144
C         13.53752        10.46758         1.00668
C         13.48539        11.97431         1.23626
C         14.82757         9.79019         0.65782
C         14.80223        12.68684         1.24473
C         13.57808        14.83374         1.48599
C         13.73715        16.12364         2.01264
C         14.79175        14.16197         1.21361
C         14.95911        16.80340         2.04786
C         13.42857        19.35763         0.94526
C         14.71466        19.03929         1.42141
C         15.88800         1.89297        -0.64670
C         15.90553         3.37097        -0.77458
C         17.14324         1.20515        -0.63961
C         17.26160         4.04390        -0.88787
C         15.98252         6.33374        -0.33262
C         15.98606         7.70641        -0.08473
C         17.22220         5.59411        -0.73090
C         17.21679         8.52536        -0.23645
C         16.04944        10.53361         0.59039
C         16.07839        11.96095         0.93752
C         17.25682         9.92014         0.23758
C         17.26793        12.72714         0.52952
C         16.02142        14.84110         1.17338
C         16.12398        16.20074         1.53567
C         17.17819        14.19846         0.52085
C         17.37528        16.91574         1.38192
C         15.87164        19.62678         0.84968
C         17.19164        19.12328         1.01758
C         18.35679         1.87596        -0.46406
C         18.29635         3.32447        -0.00443
C         19.60184         1.24306        -0.65744
C         19.66511         4.05248        -0.01509
C         18.53797         6.31654        -0.46275
C         18.53769         7.80527        -0.30491
C         19.74760         5.55050        -0.01447
C         19.78807         8.49587         0.11976
C         18.49829        10.63664         0.19621
C         18.45045        12.07160         0.27009
C         19.77180         9.97863         0.07329
C         19.71461        12.85451         0.27558
C         18.36993        15.03442         0.17647
C         18.45311        16.43786         0.66987
C         19.65490        14.30838        -0.10601
C         19.62758        17.23970         0.32507
C         18.30230        19.43430         0.24333
C         19.53491        18.66879         0.18830
C         20.78375         1.98490        -0.81674
C         20.84265         3.36693        -0.61456
C         21.81944         4.15895        -1.33500
C         21.16377         6.19583        -0.15398
C         21.09772         7.73172        -0.03130
C         21.88148         5.52028        -1.29230
C         22.26796         8.56549        -0.31519
C         20.99944        10.66041         0.04810
C         21.03148        12.14191         0.23383
C         22.20888         9.92949        -0.21341
C         22.23831        12.98190        -0.01477
C         20.91834        15.09191        -0.19553
C         20.84252        16.58592        -0.04865
C         22.19289        14.32901        -0.07053
C         21.96260        17.34486        -0.40370
C         20.68792        19.38331        -0.22328
C         21.89325        18.74296        -0.46352
O         18.06073         6.07702        -1.82204
O         13.53050         6.86473         1.82275
O         17.96868         8.43136        -1.49482
O         12.65211        16.84904         2.51062
O         20.19740        14.62644        -1.42064
O         19.73421         4.82417         1.24955
O         15.03936         3.97407        -1.81182
O         17.41831        18.15879         2.02690
O         14.91505        18.13420         2.49070
O          9.58832        10.41153        -1.45642
O         13.39656        11.02679         2.35051
O          8.17699        16.48524        -1.56143
O          4.60696        18.04702         0.81928
O          6.12704        15.77394         1.22800
O          4.08727        15.61477        -2.04085
O         20.46921         7.98781         1.29807
O         20.42907        12.58001         1.52888
O         17.35453        14.78566        -0.85500
O         15.67448        12.24631         2.34690
O          7.33996         9.12260        -1.70152
O         17.78376         3.27506         1.33647
H         18.28936         3.92733         1.87775
O          4.90417         0.64184        -0.87487
H          5.14233         1.34213        -1.52579
O          6.04697         2.42079         2.10250
H          6.87187         2.90616         2.31514
O          5.97702         3.06966        -1.52498
H          5.95845         3.90200        -2.04340
O         17.70125         3.75332        -2.23220
H         17.02672         4.11818        -2.84559
O         21.94748         5.80781         0.99789
H         21.51141         6.19951         1.78698
O          8.82599        20.57478        -0.58059
H          8.70125        20.70594         0.38147
O         15.39475         5.12198         1.60103
H         15.03224         5.79052         2.23239
O         12.45020        14.59176        -0.56642
H         13.26927        14.17701        -0.90958
O         10.74869        14.80729         2.65823
H         11.35376        15.43680         3.11353
H          0.18284         1.62528         0.89318
H          0.17942         4.07962         0.73099
H          2.32518         0.34804         0.74811
H          0.19554         5.94659         0.44818
H          0.21847         8.35156         0.15770
H          0.22453        10.18205        -0.30932
H          0.24760        12.59093        -0.63536
H          0.30804        14.51061        -1.08686
H          0.36486        16.93543        -1.35730
H          1.67064        19.12121        -1.54100
H          4.74827         0.45209         1.17049
H          3.77561        20.35539        -1.33540
H          7.30943         0.23927         0.49351
H          6.35896        20.38123        -0.73735
H          9.72491         0.19283         0.03939
H          8.97156        19.06158        -1.95993
H         12.18884         0.17524        -0.29189
H         11.19538        20.23569        -0.20426
H         14.64911         0.14489        -0.44986
H         13.42488        20.22559         0.26286
H         17.14586         0.11272        -0.78204
H         15.72109        20.37560         0.05740
H         19.61647         0.16835        -0.89421
H         18.25335        20.32502        -0.40269
H         21.66718         1.47568        -1.23155
H         22.47002         3.61295        -2.03659
H         22.58564         6.07388        -1.93011
H         23.20236         8.07559        -0.62421
H         23.13189        10.50193        -0.38443
H         23.22127        12.48721        -0.01086
H         23.13851        14.88800        -0.13682
H         22.90098        16.84303        -0.67640
H         20.61838        20.47460        -0.33780
H         22.78028        19.32292        -0.75241
