         732
 CSIRO Nanostructure Databank - Neutral Graphene Oxide Data Set
C         22.95527        24.47849        -0.94739
C         21.71518        25.18270        -0.92859
C         22.84058        27.28225        -0.37948
C         21.65654        26.52917        -0.66104
C         22.83608        28.67511        -0.33122
C         21.64153        29.46712        -0.33656
C         22.90199        31.58369        -0.14842
C         21.67013        30.83527        -0.25481
C         22.89160        33.03557         0.01113
C         21.71579        33.75472         0.22605
C         22.88704        35.90278         0.28422
C         21.71387        35.15942         0.34648
C         22.89628        37.36803         0.30545
C         21.68847        38.09612         0.17012
C         22.89414        40.21324         0.26381
C         21.68791        39.47596         0.17782
C         22.88216        41.66032         0.28342
C         21.67467        42.39685         0.30053
C         22.88579        44.51625         0.30373
C         21.67663        43.77875         0.31425
C         22.87956        45.97650         0.31979
C         21.67902        46.69829         0.27100
C         22.87139        48.80392         0.33111
C         21.67799        48.09760         0.28320
C         25.48025        23.00313        -0.78121
C         25.40871        24.39595        -0.55156
C         24.13357        25.08947        -0.57914
C         25.39061        27.22206        -0.10797
C         24.07656        26.48188         0.00587
C         25.32165        28.67920         0.10580
C         24.14297        29.41487        -0.50118
C         25.36496        31.59783        -0.11469
C         24.10868        30.89178        -0.17536
C         25.34212        33.04492        -0.15570
C         24.14055        33.75633        -0.05554
C         25.33279        35.91993         0.22347
C         24.14328        35.20558         0.11669
C         25.36945        37.33415         0.74650
C         24.10755        38.08506         0.39926
C         25.38344        40.23215         0.30809
C         24.12692        39.50203         0.34089
C         25.34390        41.63936         0.23112
C         24.11461        42.37344         0.28175
C         25.35976        44.54393         0.33489
C         24.10946        43.80890         0.28075
C         25.35806        45.99012         0.42851
C         24.11800        46.69506         0.38273
C         25.36554        48.84538         0.41258
C         24.11048        48.12589         0.37654
C         25.41040        50.26844         0.29873
C         27.89507        22.99225        -0.42500
C         26.68290        22.32451        -0.73002
C         27.83913        24.38988        -0.18044
C         26.62004        25.09504        -0.26564
C         27.86138        27.29295        -0.12322
C         26.59719        26.55285        -0.11252
C         27.85148        28.68390        -0.04955
C         26.61816        29.44824         0.19015
C         27.85105        31.63205         0.06777
C         26.57813        30.90751        -0.05670
C         27.89374        33.08841        -0.12458
C         26.60184        33.77446        -0.29256
C         27.87521        35.87828         0.45267
C         26.59930        35.27841        -0.09090
C         27.84046        37.38083         0.35347
C         26.65943        38.06776         0.41545
C         27.87794        40.20384         0.25573
C         26.64131        39.52127         0.32875
C         27.90482        41.66143         0.04971
C         26.58158        42.40797         0.03654
C         27.82035        44.55002         0.59659
C         26.56093        43.85494         0.28939
C         27.84762        46.02053         0.50478
C         26.58507        46.71248         0.49514
C         27.87197        48.87364         0.75483
C         26.58020        48.13245         0.49548
C         27.85715        50.29503         0.25589
C         26.61490        50.94732         0.16267
C         30.44737        20.22012        -0.77296
C         29.23710        20.95206        -0.82137
C         30.37949        22.85449         0.28986
C         29.15230        22.26420        -0.39411
C         30.37784        24.38663         0.32503
C         29.08542        25.13083         0.15031
C         30.35746        27.23674        -0.14740
C         29.12611        26.58482        -0.13314
C         30.39501        28.67581        -0.43983
C         29.06844        29.42308        -0.37505
C         30.39162        31.59027        -0.33554
C         29.13989        30.87068        -0.04666
C         30.33434        33.05316        -0.66846
C         29.08296        33.77273        -0.21234
C         30.30836        35.90660        -0.25376
C         29.12006        35.21737        -0.12461
C         30.27815        37.41653        -0.35925
C         29.18177        38.04967         0.50803
C         30.34916        40.23551         0.17325
C         29.13009        39.53793         0.29694
C         30.35768        41.67844         0.28871
C         29.15969        42.36973         0.34687
C         30.41474        44.59702         0.80172
C         29.11127        43.79408         0.72328
C         30.31119        45.90565        -0.00451
C         29.06643        46.70391         0.34775
C         30.33192        48.81905         0.17046
C         29.11183        48.11470         0.35092
C         30.34207        50.24924         0.09631
C         29.10136        50.97450         0.06885
C         30.33742        53.05027        -0.28678
C         29.14049        52.37384        -0.15202
C         32.95567        18.71587        -0.45784
C         32.92443        20.12389        -0.51893
C         31.66323        20.84267        -0.48993
C         32.86874        22.96659        -0.21463
C         31.67442        22.24974        -0.21218
C         32.84835        24.40114         0.00793
C         31.66144        25.11800         0.14264
C         32.82001        27.31431         0.02021
C         31.62885        26.56316         0.05688
C         32.83927        28.75320        -0.12991
C         31.63194        29.45262        -0.26082
C         32.84387        31.63003        -0.30317
C         31.59937        30.89131        -0.33989
C         32.82605        33.06566        -0.28835
C         31.60575        33.79421        -0.36961
C         32.80973        35.92796        -0.20348
C         31.57977        35.19928        -0.33114
C         32.80649        37.38525        -0.13367
C         31.60819        38.10221        -0.10331
C         32.82435        40.25364         0.00224
C         31.59832        39.52515         0.03754
C         32.83628        41.68547         0.11163
C         31.61776        42.40561         0.29486
C         32.83662        44.53397         0.20272
C         31.63250        43.80784         0.36583
C         32.82140        45.98173         0.16547
C         31.60041        46.68979         0.12785
C         32.82520        48.82058         0.12323
C         31.58302        48.09949         0.10646
C         32.82131        50.25410         0.04216
C         31.58350        50.95612        -0.02483
C         32.82333        53.10080        -0.32340
C         31.57688        52.37736        -0.21029
C         32.85788        54.49829        -0.50829
C         35.38903        18.71139        -0.48495
C         34.15743        18.02779        -0.39752
C         35.36758        20.11562        -0.63755
C         34.14770        20.84602        -0.57788
C         35.32531        23.03054        -0.59684
C         34.13093        22.29894        -0.49392
C         35.37517        24.44405        -0.32291
C         34.13448        25.10017         0.13111
C         35.35434        27.36029        -0.10466
C         34.11018        26.63527         0.19624
C         35.32688        28.78089        -0.14799
C         34.07981        29.48605        -0.13570
C         35.30290        31.65163        -0.15103
C         34.06644        30.91592        -0.20086
C         35.28952        33.06652        -0.08959
C         34.04651        33.79349        -0.14165
C         35.27426        35.96317         0.27321
C         34.01769        35.21313        -0.09958
C         35.26748        37.39154        -0.20102
C         34.06703        38.10244        -0.17587
C         35.26952        40.28332        -0.18687
C         34.05873        39.55363        -0.16966
C         35.29732        41.69634        -0.05906
C         34.06370        42.40798         0.06331
C         35.30906        44.55792         0.03894
C         34.06838        43.83432         0.09631
C         35.31170        45.97439         0.10284
C         34.06242        46.69639         0.16110
C         35.32723        48.85465         0.46094
C         34.04834        48.10941         0.17362
C         35.30374        50.29699         0.03290
C         34.06917        50.97339        -0.05344
C         35.29417        53.10236        -0.33935
C         34.05885        52.39196        -0.24270
C         35.29075        54.53360        -0.42108
C         34.06169        55.19713        -0.53622
C         37.91263        15.97289         0.14644
C         36.71126        16.61983        -0.10668
C         37.88831        18.73628        -0.32121
C         36.67027        18.00899        -0.33900
C         37.96469        20.09552        -0.98553
C         36.60592        20.82115        -1.02837
C         37.85735        23.06549        -1.03859
C         36.55351        22.32706        -1.03323
C         37.81725        24.55209        -0.82594
C         36.54133        25.20424        -0.44772
C         37.79759        27.36177        -0.34838
C         36.55980        26.63889        -0.26803
C         37.78986        28.78438        -0.27423
C         36.55735        29.50179        -0.21041
C         37.77092        31.64459        -0.17426
C         36.54789        30.93379        -0.17305
C         37.75765        33.07824        -0.12368
C         36.52967        33.79198        -0.04934
C         37.75736        35.90703        -0.07906
C         36.54561        35.21575        -0.04281
C         37.85980        37.35161        -0.50508
C         36.51415        38.06645        -0.55349
C         37.79970        40.28715        -0.23535
C         36.52676        39.58921        -0.48295
C         37.78312        41.67977        -0.13452
C         36.53738        42.41128        -0.11118
C         37.78360        44.54904        -0.12401
C         36.54152        43.82958        -0.06034
C         37.78778        45.97066        -0.10776
C         36.55638        46.70047         0.02208
C         37.79314        48.84192        -0.07984
C         36.57404        48.11120         0.05278
C         37.78930        50.26251        -0.16000
C         36.52903        50.99186        -0.15546
C         37.77919        53.12621        -0.72075
C         36.51905        52.38685        -0.34911
C         37.77319        54.57717        -0.30752
C         36.54682        55.26613        -0.28182
C         37.74129        57.34146         0.15504
C         36.55483        56.66166        -0.04122
C         40.45027        14.67868         0.78814
C         40.33194        16.08297         0.75354
C         39.10798        16.70858         0.25056
C         40.41780        18.82273         0.09216
C         39.08667        18.10007         0.04100
C         40.28811        20.32292        -0.01326
C         39.11205        20.95041        -0.45849
C         40.30128        23.08381        -0.54191
C         39.10010        22.34814        -0.66707
C         40.29418        24.54067        -0.59679
C         39.08513        25.25116        -0.55314
C         40.28023        27.38507        -0.44780
C         39.05396        26.66791        -0.43675
C         40.27281        28.81576        -0.38782
C         39.02712        29.50723        -0.28346
C         40.25080        31.62452        -0.21184
C         39.01622        30.92648        -0.21375
C         40.24732        33.08890        -0.27097
C         38.97497        33.80462        -0.09488
C         40.21187        35.93221         0.35815
C         38.98157        35.19746        -0.04418
C         40.17593        37.41146         0.60633
C         38.97553        38.15648         0.14829
C         40.27290        40.26251         0.18150
C         39.01023        39.53344         0.01839
C         40.25903        41.70226         0.00622
C         39.03499        42.40216        -0.08962
C         40.24976        44.53410        -0.28338
C         39.01534        43.82497        -0.16948
C         40.23330        45.95936        -0.26949
C         39.03162        46.68311        -0.14918
C         40.25101        48.85691        -0.15353
C         39.04335        48.12978        -0.12411
C         40.26590        50.27437        -0.23547
C         39.01965        50.98602        -0.25549
C         40.25634        53.11458        -0.23986
C         39.03884        52.40003        -0.34104
C         40.25370        54.55044        -0.11218
C         38.99701        55.26620        -0.09993
C         40.23212        57.38052         0.37237
C         38.98588        56.66952         0.14003
C         40.23546        58.76845         0.64239
C         42.15073        14.82950         2.47875
C         41.39178        14.05277         1.60191
C         42.05530        16.22288         2.38764
C         41.27570        16.89286         1.43797
C         42.64833        19.15912         1.29837
C         41.26253        18.42552         1.33584
C         42.70054        20.40964         0.67413
C         41.49384        21.04963         0.12329
C         42.81268        23.06508        -0.61419
C         41.51139        22.40627        -0.25619
C         42.77823        24.57217        -0.56823
C         41.53217        25.25821        -0.56406
C         42.74880        27.40019        -0.60297
C         41.51624        26.68142        -0.53313
C         42.74676        28.82103        -0.56460
C         41.49765        29.52983        -0.42356
C         42.72524        31.67118        -0.12518
C         41.48193        30.94782        -0.28493
C         42.74960        33.01397         0.17778
C         41.54660        33.82458        -0.04489
C         42.70283        35.97392         0.36953
C         41.52866        35.26533         0.29128
C         42.75505        37.41614         0.50122
C         41.48612        38.16779         0.92173
C         42.72349        40.34975         0.56638
C         41.45869        39.60238         0.43991
C         42.75329        41.74874         0.11018
C         41.49661        42.41962        -0.06490
C         42.73695        44.48358        -0.63962
C         41.47598        43.81188        -0.29088
C         42.73474        46.00266        -0.71238
C         41.51843        46.66608        -0.18876
C         42.78156        48.89097        -0.44955
C         41.54591        48.16904        -0.08082
C         42.74788        50.27204        -0.49231
C         41.50297        50.97930        -0.31364
C         42.72714        53.12249        -0.09926
C         41.49861        52.40191        -0.22991
C         42.69468        54.51028         0.09073
C         41.46977        55.24306         0.08939
C         42.67593        57.38543         0.60635
C         41.46869        56.67481         0.34194
C         42.63695        58.75572         0.87479
C         41.41983        59.44643         0.88664
C         45.04768        17.06804         3.47439
C         43.87268        17.56259         2.89834
C         45.10144        19.32517         1.86621
C         43.84819        18.65325         1.99116
C         45.08479        20.71655         1.40501
C         43.90765        21.23362         0.69845
C         45.22614        23.23818         0.02755
C         43.98652        22.49990         0.13501
C         45.24996        24.57296        -0.52171
C         43.98397        25.27037        -0.65998
C         45.20637        27.41427        -0.83738
C         43.98240        26.70538        -0.74570
C         45.21002        28.80780        -0.65040
C         43.98165        29.50504        -0.58845
C         45.25556        31.73455        -0.52809
C         43.97729        30.97605        -0.50282
C         45.31194        32.94913         0.37330
C         44.00783        33.73099         0.47078
C         45.23045        35.92371        -0.03272
C         43.98978        35.22655         0.46746
C         45.24681        37.40647         0.26292
C         43.97791        38.08223         0.43491
C         45.29473        40.25276         0.26479
C         44.04156        39.55337         0.60512
C         45.26102        41.73216         0.24828
C         43.97938        42.43485        -0.01124
C         45.23231        44.49643        -0.64150
C         44.01411        43.79066        -0.41672
C         45.19891        45.93003        -1.02298
C         43.99761        46.75359        -0.73970
C         45.24731        48.90488        -0.82787
C         44.00872        48.14362        -0.68258
C         45.27124        50.28551        -0.69662
C         43.98512        51.06454        -0.87170
C         45.18904        53.03676         0.11929
C         44.00525        52.42543        -0.21754
C         45.10998        54.36422         0.83760
C         43.98438        55.21155         0.27845
C         45.15870        57.20540         1.30212
C         43.98320        56.67892         0.58039
C         46.27626        17.63426         3.16019
C         47.61524        19.44360         2.08480
C         46.32124        18.80243         2.37746
C         47.66988        20.70928         1.46059
C         46.41700        21.44962         1.25883
C         47.68509        23.22688         0.07627
C         46.43641        22.65451         0.43737
C         47.66722        24.45025        -0.66494
C         46.46882        25.21742        -0.80646
C         47.70934        27.50665        -1.06384
C         46.44220        26.67754        -1.32460
C         47.74350        28.82165        -0.59223
C         46.47402        29.54153        -0.22433
C         47.79671        31.68587        -0.19229
C         46.57021        30.98261        -0.75457
C         47.79014        33.06416         0.07947
C         46.54241        33.79395         0.15088
C         47.74932        35.89402         0.48515
C         46.49846        35.15981         0.27477
C         47.74023        37.39829         0.39063
C         46.44355        38.10290         0.19742
C         47.76343        40.20356        -0.15882
C         46.48124        39.55050         0.12247
C         47.78615        41.65420        -0.30847
C         46.54365        42.44541        -0.09929
C         47.71065        44.54478        -0.73107
C         46.47396        43.83734        -0.59870
C         47.75265        45.92895        -0.80032
C         46.52002        46.66833        -1.09357
C         47.78874        48.91044        -0.83675
C         46.50658        48.16829        -1.06050
C         47.72903        50.33784        -0.50628
C         46.51818        51.01944        -0.51808
C         47.65472        53.09327         0.26068
C         46.48322        52.41057        -0.08407
C         47.63275        54.42913         0.83633
C         46.40934        55.11620         0.97138
C         46.31004        56.47763         1.41140
C         50.05578        19.41766         2.07653
C         48.83874        18.80241         2.36619
C         50.11603        20.66020         1.43321
C         48.90479        21.31121         1.09498
C         50.17021        23.19557         0.04476
C         48.92199        22.59464         0.41105
C         50.14733        24.39420        -0.75156
C         48.92191        24.83921        -1.20729
C         50.18851        27.48083        -1.09146
C         48.94475        26.97960        -1.47915
C         50.21246        28.82527        -0.63975
C         48.98350        29.52755        -0.48157
C         50.26176        31.61233         0.05980
C         49.00900        30.94960        -0.19694
C         50.28572        33.05306         0.27622
C         49.03378        33.78616         0.23851
C         50.26563        35.96995         0.63139
C         49.01711        35.16506         0.38735
C         50.18642        37.33761        -0.02156
C         49.00823        38.05620        -0.02715
C         50.21075        40.15247        -0.82328
C         48.93301        39.47111        -0.35106
C         50.24031        41.62907        -0.53236
C         48.97184        42.32963        -0.47017
C         50.18075        44.50162        -0.19989
C         49.00791        43.78993        -0.84781
C         50.26629        45.96769        -0.30903
C         48.96884        46.66756        -0.37798
C         50.27775        48.85990        -0.24452
C         48.98183        48.15604        -0.35075
C         50.27112        50.25894        -0.17401
C         49.02040        51.02392        -0.40542
C         50.20655        53.08843         0.54173
C         48.98038        52.50484        -0.02472
C         50.09123        54.35563         1.13784
C         48.87201        55.01974         1.22275
C         52.62310        20.48767         1.00005
C         51.44026        21.37702         1.27696
C         52.64289        23.09832        -0.11330
C         51.40722        22.55594         0.33290
C         52.67473        24.41624        -0.81549
C         51.39405        25.11685        -1.16627
C         52.72539        27.37584        -1.00677
C         51.42201        26.65210        -1.30551
C         52.66738        28.78029        -0.53607
C         51.47236        29.49603        -0.39104
C         52.72235        31.48450         0.56919
C         51.46033        30.88259        -0.00648
C         52.74741        33.01617         0.65764
C         51.48700        33.76715         0.44116
C         52.74136        35.90810         0.23016
C         51.53810        35.19511         0.36690
C         52.74660        37.29070        -0.09168
C         51.46150        37.95197        -0.56069
C         52.74953        40.14474        -0.54957
C         51.44568        39.45657        -0.22106
C         52.72492        41.61816        -0.87995
C         51.43679        42.29260        -0.47222
C         52.72308        44.47526        -0.12871
C         51.46165        43.72371        -0.10873
C         52.72183        45.89500        -0.06941
C         51.46445        46.64078        -0.17808
C         52.69629        48.80965        -0.02659
C         51.48780        48.10990        -0.15074
C         52.69461        50.21788         0.19444
C         51.47072        50.95798         0.13130
C         52.68169        52.99176         0.73477
C         51.45031        52.36548         0.44720
C         53.77880        21.02751         0.53007
C         55.18527        23.08432        -0.00417
C         53.84350        22.38896         0.06637
C         55.12935        24.46323        -0.60277
C         53.95328        25.17326        -0.74072
C         55.19923        27.27482        -0.54917
C         53.97878        26.60356        -0.80226
C         55.18351        28.70077        -0.19132
C         53.95404        29.49908        -0.44417
C         55.29510        31.61132         0.19440
C         53.98672        30.93659        -0.06680
C         55.30882        33.01295         0.28876
C         54.05733        33.75395         0.60644
C         55.17092        35.80248        -0.41328
C         54.09318        35.28167         0.53731
C         55.20872        37.31820        -0.35789
C         53.95522        38.00648        -0.28501
C         55.20696        40.16562        -0.66662
C         53.94045        39.45075        -0.51164
C         55.20937        41.61616        -0.51139
C         53.96739        42.33756        -0.41300
C         55.15683        44.43941         0.21410
C         53.93002        43.71470        -0.14448
C         55.17730        45.91056         0.13008
C         53.95313        46.60479        -0.00063
C         55.16018        48.77098         0.44481
C         54.00821        48.09619        -0.24371
C         55.14546        50.12546         0.66408
C         53.91609        50.89512         0.52513
C         53.87845        52.27979         0.75582
C         57.54589        22.88819        -0.77958
C         56.37008        22.29279        -0.51835
C         57.68159        24.37374        -0.85687
C         56.40836        25.16049        -0.80727
C         57.69331        27.27284        -0.38156
C         56.43608        26.60026        -0.52514
C         57.73606        28.67364        -0.19445
C         56.48707        29.41701         0.03514
C         57.73889        31.57025        -0.04455
C         56.50191        30.89557         0.02604
C         57.74535        32.99615        -0.06717
C         56.52286        33.71971         0.06632
C         57.69494        35.81279        -0.41798
C         56.50949        35.13678        -0.16057
C         57.64579        37.23767        -0.82370
C         56.39073        38.00473        -0.62640
C         57.68353        40.14812        -0.98774
C         56.40110        39.44101        -0.75833
C         57.68761        41.68884        -0.78816
C         56.42802        42.30350        -0.38937
C         57.70583        44.47595        -0.08705
C         56.48026        43.68212         0.10320
C         57.64950        45.87318        -0.00279
C         56.42512        46.58090         0.16406
C         57.56193        48.87680        -0.12997
C         56.48029        48.03364         0.58686
C         57.57782        50.23729         0.54568
C         56.42316        50.79386         0.95016
C         60.13657        24.39129        -0.36907
C         58.93888        25.09379        -0.51774
C         60.16956        27.21188        -0.25289
C         58.93205        26.51854        -0.40654
C         60.19205        28.66446        -0.22855
C         58.96811        29.39108        -0.18813
C         60.20389        31.53203        -0.19864
C         58.97571        30.82856        -0.13916
C         60.20918        32.98281        -0.25204
C         58.97713        33.70423        -0.23127
C         60.19440        35.83816        -0.44879
C         58.95835        35.12506        -0.37238
C         60.20715        37.27557        -0.50012
C         58.98216        38.00150        -0.84941
C         60.14737        40.16572        -0.49215
C         58.96195        39.46513        -0.75105
C         60.16168        41.63008        -0.39015
C         58.95695        42.36403        -0.43962
C         60.18542        44.46021        -0.00365
C         58.95558        43.76882        -0.21010
C         60.18852        45.91028         0.12080
C         58.92342        46.62421        -0.16058
C         60.15323        48.79075         0.31186
C         58.91780        48.14624        -0.15458
C         61.34242        25.07511        -0.16396
C         61.36351        26.46150        -0.13367
C         61.40358        29.39913        -0.24107
C         61.40960        30.78051        -0.24143
C         61.41196        33.71997        -0.34745
C         61.40443        35.10105        -0.42170
C         61.35455        38.03362        -0.21901
C         61.33723        39.42195        -0.23999
C         61.36725        42.33646        -0.16492
C         61.37957        43.71138         0.00789
C         61.32970        46.64493         0.35998
C         61.29314        48.06733         0.49918
O         57.67927        41.07263        -2.11757
O         55.69067        28.89801         1.17876
O         46.07696        42.35220         1.30292
O         42.70074        16.98216         3.37790
O         45.84296        46.19349        -2.31408
O         28.30785        44.01414         1.94547
O         52.21781        27.16293        -2.39856
O         39.90094        36.48137         1.72496
O         34.24183        25.81557         1.40839
O         55.83173        43.90424         1.40394
O         42.57480        45.21178        -1.92990
O         52.14303        24.39953        -2.19431
O         50.61733        43.99390         1.08804
O         36.42704        38.87388        -1.78353
O         58.31799        37.50241        -2.08753
O         43.43690        40.09345         1.82568
O         47.74120        36.77363         1.73130
O         48.67035        47.41912         0.89283
O         29.65945        29.07662        -1.66187
O         44.33769        56.14935        -0.76940
O         44.05058        34.51124         1.73810
O         26.65720        34.72389        -1.43058
O         29.62402        24.85257         1.50923
O         38.41386        19.79903        -2.29610
O         37.90560        23.96834        -2.18967
O         41.01347        33.61505        -1.41863
O         53.98221        30.56401        -1.48872
O         49.15821        52.07525        -1.41884
O         28.60800        31.19280         1.28731
O         57.08688        24.84595        -2.12130
O         48.92012        25.79897        -2.23000
O         36.37631        21.55940        -2.26881
O         45.59357        21.60975         2.46710
O         44.46878        31.75016        -1.73721
O         25.81775        29.09974         1.39825
O         59.04496        47.40689        -1.41864
O         27.29041        42.08611        -1.23019
O         47.31940        48.65658        -2.20040
O         53.45327        33.38843         1.90781
O         41.73163        47.30884         1.11273
O         54.47308        35.75823         1.84916
H         53.94307        35.24348         2.50016
O         54.76205        35.42122        -1.75269
H         55.37610        35.83436        -2.39572
O         41.17165        18.39585        -1.07280
H         40.63372        18.64063        -1.85925
O         41.56270        38.27786         2.36758
H         41.14944        37.46090         2.73455
O         35.40035        48.91147         1.94493
H         35.36411        47.98705         2.27277
O         51.48458        37.72440        -1.99300
H         50.90112        38.39044        -2.42829
O         43.04031        22.71475        -2.02794
H         42.22746        22.94626        -2.52650
O         27.90165        35.53732         1.87156
H         28.62218        36.07775         2.27468
O         52.73920        30.96504         1.93113
H         53.15613        31.65801         2.49731
O         29.57612        37.80836         1.90241
H         28.98901        38.34641         2.47564
O         30.17344        45.51076        -1.40027
H         30.16376        46.32219        -1.94962
O         24.42208        29.34963        -1.94913
H         23.68849        29.80561        -2.41401
O         56.86481        48.00910         1.99119
H         56.22967        47.43645         2.47052
O         38.34341        37.23294        -1.88380
H         37.89506        37.95132        -2.39582
O         49.30426        43.77153        -2.29405
H         48.79423        44.48791        -2.72988
O         29.91650        37.72382        -1.73513
H         30.52325        37.23674        -2.33072
O         30.66086        44.94476         2.17918
H         29.80170        44.84615         2.65685
O         46.81154        30.90654        -2.17350
H         45.94975        31.08866        -2.62210
O         45.08340        35.84912        -1.49623
H         45.85878        36.28252        -1.91081
O         43.88154        51.32250        -2.31373
H         44.09820        50.49053        -2.78597
O         52.73453        41.68797        -2.35277
H         51.99297        41.11800        -2.66763
O         30.20639        33.08327        -2.15239
H         30.99556        32.63323        -2.52404
O         45.51808        32.36462         1.69005
H         45.34207        33.07629         2.34731
O         50.34035        36.23565         2.07872
H         49.43894        36.55105         2.34943
O         51.27879        39.58708         1.21209
H         51.99162        39.08133         1.65653
O         37.78341        53.14233        -2.20390
H         38.60070        53.60612        -2.48665
O         54.32259        48.25591        -1.68180
H         55.25421        48.59051        -1.75491
O         51.69970        21.95964         2.61926
H         52.54181        22.46014         2.55619
O         40.58026        18.93125         2.50603
H         41.05338        18.58289         3.29301
O         27.95867        48.99042         2.23859
H         27.15858        49.47670         2.53254
O         23.90484        26.28523         1.46006
H         24.69890        25.81282         1.79025
O         46.28888        26.60034        -2.76762
H         47.10273        26.17288        -3.11997
O         57.12554        49.06648        -1.49690
H         57.68009        48.46370        -2.05219
O         35.25335        36.04555         1.74994
H         35.20415        35.12885         2.09590
O         44.69143        54.06267         2.21681
H         45.38112        53.49686         2.62348
O         30.29641        22.39613         1.67565
H         29.81901        23.10536         2.16950
O         50.27119        40.04249        -2.28915
H         49.54868        40.59659        -2.65648
O         55.50405        23.34306         1.42591
H         55.65753        22.47227         1.85174
O         25.38488        37.25321         2.21855
H         24.61996        36.70315         2.49146
O         46.39869        29.63314         1.22114
H         46.34791        28.72775         1.59120
H         22.94485        23.43554        -1.29340
H         20.79871        24.64137        -1.20199
H         20.69537        27.05022        -0.77262
H         20.66378        28.96493        -0.33468
H         20.71425        31.37555        -0.23783
H         20.75231        33.23365         0.30340
H         20.74715        35.65924         0.49628
H         20.73272        37.56564         0.06688
H         20.72647        39.99843         0.09238
H         20.70793        41.87731         0.31396
H         20.71066        44.29909         0.34088
H         20.71427        46.17796         0.21708
H         22.83605        49.90087         0.33525
H         20.72277        48.63938         0.24804
H         24.56539        22.43372        -0.99143
H         24.47964        50.84409         0.22004
H         26.67731        21.24106        -0.90365
H         26.57137        52.02338        -0.05529
H         30.42271        19.16122        -1.06298
H         28.35493        20.43730        -1.22665
H         30.30545        54.13616        -0.44242
H         28.20835        52.95159        -0.19788
H         32.01631        18.14939        -0.40170
H         31.92633        55.07110        -0.60186
H         34.13139        16.93463        -0.30244
H         34.02855        56.28923        -0.64633
H         37.91175        14.88772         0.31615
H         35.79030        16.02272        -0.13286
H         37.69619        58.42324         0.33373
H         35.61149        57.22186         0.00005
H         39.76844        14.06268         0.18681
H         39.29483        59.33309         0.66370
H         42.80657        14.37247         3.23046
H         41.47247        12.95734         1.61658
H         43.56738        59.30858         1.06121
H         41.40495        60.52606         1.08866
H         44.98118        16.22135         4.16937
H         45.13142        58.22886         1.70190
H         47.18907        17.20802         3.59471
H         47.19483        56.96906         1.84243
H         50.98274        18.90697         2.37166
H         48.85557        17.81337         2.84255
H         50.98253        54.85304         1.54487
H         48.86642        56.02207         1.67087
H         52.60644        19.43781         1.32444
H         52.71010        54.06949         0.94483
H         54.68205        20.40173         0.46027
H         54.80361        52.82429         0.98647
H         58.40935        22.27410        -1.08056
H         56.29954        21.19479        -0.55810
H         58.51792        50.79302         0.66433
H         56.42680        51.78967         1.41551
H         60.14216        23.29449        -0.43243
H         60.15982        49.86546         0.53609
H         62.27756        24.50927        -0.05348
H         62.32547        26.97219         0.00433
H         62.36686        28.87353        -0.27946
H         62.37779        31.29665        -0.27913
H         62.37985        33.20229        -0.36110
H         62.36415        35.62908        -0.49949
H         62.29535        37.52782         0.03708
H         62.27261        39.94738        -0.01265
H         62.32722        41.80557        -0.14544
H         62.34447        44.21543         0.15200
H         62.29255        46.14116         0.52063
H         62.21310        48.58075         0.81304
