         324
 CSIRO Nanostructure Databank - Neutral Graphene Oxide Data Set
C         30.41142        57.23356        -0.81580
C         30.41707        58.66233        -0.95914
C         29.25566        59.47720        -0.90198
C         30.24352        61.69251        -0.14734
C         29.20871        60.84440        -0.52868
C         32.82083        52.92058        -0.41556
C         32.80388        54.33543        -0.39299
C         31.59792        55.07885        -0.58097
C         32.93833        57.14808        -0.97127
C         31.59389        56.47631        -0.74551
C         32.89962        58.63510        -0.67581
C         31.69494        59.27989        -1.04261
C         32.71679        61.54044         0.44325
C         31.62620        61.34489        -0.35395
C         35.30178        48.62235        -0.24859
C         35.23222        50.01201        -0.21910
C         34.02518        50.75911        -0.31144
C         35.25804        52.87856         0.01071
C         34.01414        52.16905        -0.27616
C         35.24648        54.33709         0.13044
C         34.02617        55.05090        -0.13458
C         35.22584        57.18952         0.01719
C         34.07771        56.46232        -0.27688
C         35.24918        58.62485        -0.05581
C         33.99664        59.34136        -0.20599
C         35.24444        61.47238         0.01881
C         33.99607        60.72487         0.44031
C         37.73849        44.33464         0.11897
C         37.72921        45.75770         0.15160
C         36.53839        46.48882        -0.07080
C         37.76304        48.58661         0.17980
C         36.53376        47.89918        -0.06163
C         37.80757        50.04773         0.04291
C         36.49994        50.77142        -0.14656
C         37.63091        52.90321         0.78981
C         36.43021        52.19505         0.20515
C         37.74408        54.28813         0.16948
C         36.42986        55.02115         0.33207
C         37.72763        57.16236         0.34393
C         36.40879        56.48911         0.63240
C         37.71008        58.59001        -0.03932
C         36.44623        59.34085        -0.00206
C         37.71054        61.49645        -0.17722
C         36.45862        60.79448        -0.08231
C         39.94901        39.83787         0.44568
C         40.08464        41.34426         0.41595
C         38.89182        42.16269         0.20976
C         40.19242        44.26274         0.40326
C         38.92531        43.56209         0.25861
C         40.14645        45.70130         0.74386
C         38.93228        46.47330         0.45607
C         40.21365        48.62254         0.66189
C         38.95825        47.88468         0.47564
C         40.23180        50.05375         0.71142
C         38.99041        50.79793         0.55068
C         40.14434        52.91105         1.25407
C         38.93765        52.14743         0.75038
C         40.15659        54.38266         0.86919
C         38.96706        55.04650         0.62933
C         40.17973        57.23150         0.71364
C         38.91532        56.48471         0.50686
C         40.20253        58.71165         0.48316
C         38.98437        59.36816        -0.07231
C         40.20499        61.50213        -0.10196
C         38.95846        60.85293        -0.09477
C         42.60685        35.74448        -0.59978
C         42.47868        37.12176        -0.26997
C         41.18248        37.60027        -0.05479
C         42.74916        40.14487        -0.58932
C         40.83556        39.00605        -0.16115
C         42.68513        41.49479        -0.21456
C         41.41967        42.12759         0.22105
C         42.67972        44.31656         0.27665
C         41.39934        43.61296         0.22403
C         42.70809        45.74416         0.57240
C         41.44878        46.45750         0.86420
C         42.67593        48.62379         0.78597
C         41.43348        47.92782         0.74811
C         42.68361        50.04494         0.88169
C         41.44270        50.75844         0.89848
C         42.63579        52.91775         1.05270
C         41.45407        52.20324         1.00476
C         42.65334        54.36533         0.94236
C         41.42482        55.08887         0.86930
C         42.67005        57.20780         0.55792
C         41.45519        56.49572         0.70173
C         42.67825        58.64732         0.32911
C         41.48196        59.38515         0.24224
C         42.68692        61.45414        -0.19397
C         41.45581        60.79123        -0.03646
C         45.09731        33.20518        -1.69726
C         43.88436        33.80500        -1.38274
C         45.07431        35.87951        -0.71043
C         43.82874        35.14417        -0.90945
C         45.06867        37.15646        -0.20964
C         43.76851        37.89009         0.07970
C         45.09949        40.04728        -0.17425
C         43.88433        39.35013        -0.38401
C         45.11518        41.47061        -0.17330
C         43.90159        42.20041        -0.09477
C         45.19518        44.27879         0.44890
C         43.87871        43.62717         0.09611
C         45.18291        45.80309         0.23743
C         43.88526        46.46367         0.62053
C         45.14161        48.60950         0.83302
C         43.91260        47.90200         0.76838
C         45.12540        50.02575         0.99724
C         43.92379        50.73161         1.01724
C         45.15608        52.92349         0.85479
C         43.93068        52.20480         1.36140
C         45.11209        54.29648         0.63501
C         43.88291        55.05757         0.75665
C         45.13206        57.19091         0.35591
C         43.89934        56.47884         0.55851
C         45.13988        58.61085         0.16968
C         43.91185        59.33328         0.13395
C         45.15056        61.41982        -0.30179
C         43.91690        60.74972        -0.11850
C         46.30545        33.90244        -1.55144
C         47.53581        35.93825        -0.95083
C         46.32817        35.21946        -1.05518
C         47.63593        37.21293        -0.36262
C         46.36224        37.80406         0.28934
C         47.39939        40.05272         0.54201
C         46.30677        39.32367         0.16499
C         47.65647        41.41911         0.09184
C         46.40651        42.17788        -0.25147
C         47.71502        44.25077         0.43078
C         46.45098        43.69064        -0.23101
C         47.68363        45.65722         0.90053
C         46.38138        46.42919         0.91773
C         47.63020        48.54663         0.96440
C         46.41220        47.89973         0.88393
C         47.63156        50.03512         0.71621
C         46.41566        50.74491         1.34654
C         47.60424        52.85646         0.80121
C         46.39732        52.20229         0.91809
C         47.65855        54.22824         0.30239
C         46.33025        55.00133         0.20507
C         47.57582        57.16416         0.12098
C         46.36579        56.48266         0.24579
C         47.60165        58.59969         0.04534
C         46.36802        59.30833        -0.01227
C         47.62160        61.40422        -0.41809
C         46.38325        60.73005        -0.24208
C         48.91291        37.82329        -0.42153
C         50.23491        39.99341        -0.18147
C         49.27945        39.05128         0.18889
C         50.15314        41.40275         0.13320
C         48.96309        42.10620         0.29789
C         50.17139        44.29158         0.61176
C         48.92062        43.55814         0.45273
C         50.18041        45.70387         0.85410
C         48.93343        46.42849         0.97698
C         50.11799        48.57506         1.33903
C         48.87331        47.81984         1.07714
C         50.14761        50.04451         1.14977
C         48.93004        50.71824         1.04458
C         50.15920        52.94086         1.10703
C         48.87293        52.17925         1.15113
C         50.12388        54.37518         0.70208
C         48.90618        54.99023         0.37739
C         50.06692        57.15856         0.31854
C         48.85325        56.40269        -0.16626
C         50.06361        58.65031         0.36717
C         48.81808        59.33435         0.00838
C         50.11933        61.41306        -0.40740
C         48.85661        60.73214        -0.26943
C         51.45933        42.15609         0.01085
C         52.59871        44.33719         0.34516
C         51.40268        43.62566         0.36999
C         52.63279        45.74032         0.57596
C         51.40811        46.40311         0.87528
C         52.66897        48.60638         0.95855
C         51.44996        47.82944         1.22500
C         52.65460        50.02826         1.02137
C         51.40286        50.72051         1.10629
C         52.67208        52.89923         1.20814
C         51.41901        52.17903         0.72439
C         52.60344        54.41565         1.12454
C         51.36263        55.04072         0.61937
C         52.61764        57.16332        -0.06569
C         51.35177        56.42590         0.11561
C         52.65329        58.65936         0.13286
C         51.35962        59.40517         0.34011
C         52.60299        61.49077        -0.26122
C         51.37226        60.82567        -0.12899
C         53.83614        46.48744         0.49293
C         55.06626        48.64031         0.45390
C         53.85957        47.89779         0.62546
C         55.09529        50.01905         0.60629
C         53.90270        50.75096         0.87525
C         55.16772        52.88973         0.87359
C         53.96646        52.18775         1.01701
C         55.20294        54.37506         0.87121
C         53.90399        55.15435         0.98145
C         54.93981        56.75705        -0.56194
C         53.87006        56.40272         0.19176
C         54.87819        58.91840        -0.98146
C         53.81536        59.47524        -0.27060
C         55.17795        61.54992        -0.28927
C         53.92062        60.89118         0.23466
C         56.44456        50.70069         0.52321
C         57.56987        52.89590         0.28227
C         56.40917        52.21640         0.53419
C         57.70710        54.38865         0.49744
C         56.38623        55.04736         0.27687
C         57.41492        57.05783        -0.80411
C         56.28780        56.28420        -0.35662
C         57.34848        58.49909        -1.22368
C         56.18761        59.40693        -0.94032
C         57.58993        61.44606        -0.86389
C         56.30370        60.82585        -0.68603
C         58.79677        55.07214        -0.27346
C         59.90748        57.09270        -1.05603
C         58.68953        56.38612        -0.74462
C         59.94569        58.46960        -1.20835
C         58.68231        59.23333        -1.36225
C         60.01361        61.32750        -1.15646
C         58.73550        60.70593        -1.13522
C         61.17370        59.18660        -1.24139
C         61.19167        60.58133        -1.24661
O         57.93221        58.80104        -2.54522
O         31.81486        60.56254        -1.53413
O         54.71158        57.67025        -1.59217
O         49.56658        52.66501         2.39089
O         48.42461        39.43089         1.26082
O         54.78255        55.06472         2.13003
O         52.48115        53.69253         2.40162
O         51.89930        56.67770        -1.24851
O         40.74303        45.98138         2.06905
O         47.23095        41.60654        -1.33306
O         40.04875        58.18888         1.84889
O         38.48974        58.77966        -1.31671
O         40.93965        41.70553         1.55913
O         52.19492        59.07263         1.48569
O         41.61172        39.61151        -1.17531
O         50.82657        48.13600         2.52932
O         37.39641        50.51238        -1.29923
O         49.90701        57.81153         1.58999
O         46.85898        45.83700         2.14297
O         46.95589        54.43139        -0.99612
O         46.42936        37.48929         1.71889
H         47.22357        37.96022         2.06546
O         45.34688        43.93882         1.84716
H         44.64348        44.38710         2.36195
O         54.02178        60.98366         1.68232
H         53.32119        60.39489         2.05588
O         37.92378        54.08841        -1.26060
H         37.93242        54.96635        -1.69651
O         51.45090        52.22449        -0.74024
H         52.22626        51.70479        -1.04166
O         40.03064        52.92929         2.72619
H         39.11350        53.24142         2.92482
O         46.51464        44.09253        -1.61738
H         47.04711        43.39925        -2.07481
O         34.17036        60.41927         1.87597
H         35.00495        59.91213         1.97909
O         45.33435        46.15294        -1.16251
H         44.71448        45.60820        -1.69055
O         44.05818        52.25413         2.83907
H         43.17948        52.03364         3.21876
O         57.17476        50.22087        -0.61550
H         56.69445        50.49022        -1.42464
O         33.21388        57.02358        -2.40496
H         32.42985        57.35334        -2.89288
O         48.94863        56.29334        -1.61400
H         48.25365        55.64868        -1.89132
O         43.67793        38.00758         1.53577
H         44.58704        37.89497         1.90902
O         58.06295        54.57319         1.92818
H         57.22381        54.57756         2.43959
O         46.54881        50.69704         2.78128
H         45.80066        51.21755         3.15972
O         47.45048        50.21116        -0.72743
H         48.15760        49.71837        -1.19374
O         52.48161        41.49933         0.77772
H         52.21505        41.51584         1.71968
O         36.22170        56.61210         2.09942
H         36.87395        56.01666         2.52815
O         37.33442        53.13370         2.21486
H         37.03310        52.28498         2.60352
H         29.44321        56.71856        -0.72187
H         28.28642        58.95662        -0.93904
H         29.99695        62.60955         0.40688
H         28.19129        61.23687        -0.36925
H         31.87764        52.38312        -0.59741
H         30.63876        54.53813        -0.57691
H         32.59764        62.18009         1.33058
H         34.37784        48.03878        -0.37676
H         33.07401        50.21845        -0.42986
H         35.22181        62.57010        -0.03885
H         36.78439        43.80837        -0.03424
H         35.60234        45.94631        -0.26809
H         37.68198        62.59533        -0.23185
H         39.28577        39.45353         1.23534
H         37.94679        41.65975        -0.04510
H         40.23831        62.59824        -0.19440
H         41.68552        35.15462        -0.72944
H         40.36774        36.85822         0.00564
H         42.70146        62.53714        -0.38626
H         45.11235        32.17209        -2.07213
H         42.94477        33.24780        -1.50791
H         45.14804        62.50332        -0.49288
H         47.25381        33.41489        -1.81944
H         48.45477        35.46608        -1.33281
H         47.61523        62.48460        -0.62586
H         49.65787        37.33729        -1.07266
H         51.07575        39.67801        -0.81813
H         50.09240        62.47783        -0.68593
H         51.79137        42.08069        -1.06393
H         53.53529        43.80420         0.12635
H         52.62250        62.44497        -0.81170
H         54.77577        45.95957         0.27378
H         55.99731        48.10474         0.22073
H         55.28971        62.63087        -0.11166
H         57.03488        50.37471         1.42434
H         58.46790        52.31857         0.01230
H         57.68127        62.52913        -0.69279
H         59.79473        54.60582        -0.25846
H         60.85557        56.53748        -0.98869
H         60.06826        62.42227        -1.06835
H         62.11809        58.62405        -1.22089
H         62.15730        61.10594        -1.26109
