         404
 CSIRO Nanostructure Databank - Neutral Graphene Oxide Data Set
C          1.26896         3.28534         0.76390
C          0.07972         3.95235         1.04024
C          1.18852         6.13242         0.81077
C          0.04230         5.34658         1.08647
C          1.14402         7.56196         0.90202
C         -0.03637         8.30258         1.17720
C          1.14840        10.48546         1.12969
C         -0.07150         9.67932         1.15683
C          1.06986        11.96890         0.80309
C         -0.02141        12.71203         1.53572
C          1.28038        14.81117         1.61011
C          0.02677        14.02857         1.77568
C          1.23506        16.25689         1.30184
C          0.01094        16.91009         1.14005
C          1.15604        19.02639         0.80733
C         -0.02090        18.27503         0.84922
C          1.04549        20.49929         0.61670
C         -0.00954        21.13698        -0.18954
C          1.24757        23.26421        -0.31056
C          0.05396        22.45628        -0.51496
C          1.28401        24.67810        -0.64088
C          0.12287        25.42957        -0.83067
C          1.35173        27.56724        -1.02411
C          0.14749        26.81054        -1.07250
C          1.38747        29.00195        -1.19733
C          0.18866        29.77317        -1.41467
C          1.42637        31.88381        -1.69474
C          0.20270        31.13053        -1.58220
C          1.44806        33.26793        -1.80264
C          0.22695        34.06252        -1.83157
C          1.45691        36.06198        -1.04845
C          0.20861        35.38420        -1.54861
C          1.41180        37.56839        -1.07844
C          3.68569         3.35273         0.29658
C          2.45765         4.01798         0.52705
C          3.63842         6.14659         0.24874
C          2.42628         5.45085         0.50530
C          3.54149         7.59150        -0.04482
C          2.29434         8.32386         0.38169
C          3.57185        10.54988         0.16235
C          2.42947         9.77554         0.69700
C          3.54234        11.97787         0.35214
C          2.43106        12.63644         0.85145
C          3.69710        14.86402         0.76011
C          2.52840        14.07039         1.20171
C          3.70065        16.27257         0.92995
C          2.45222        16.97487         1.12716
C          3.67522        19.13297         1.08603
C          2.42257        18.39259         0.98743
C          3.57632        20.57156         1.12337
C          2.31814        21.28203         0.76039
C          3.68875        23.30897         0.23960
C          2.39102        22.62034         0.15971
C          3.80753        24.72679        -0.23343
C          2.60675        25.37392        -0.93092
C          3.75296        27.59772        -0.52107
C          2.56563        26.87849        -0.76532
C          3.80640        29.01002        -0.76274
C          2.62262        29.68081        -1.17282
C          4.01468        31.78095        -1.75361
C          2.67968        31.08411        -1.67510
C          4.05210        33.28950        -1.94523
C          2.72578        34.01783        -1.98299
C          3.93919        36.32275        -1.68615
C          2.67886        35.51890        -1.77326
C          3.86770        37.71143        -1.14274
C          2.54205        38.30884        -1.06991
C          6.09179         3.22971         0.01075
C          4.90972         4.03148         0.26309
C          6.10921         6.27927         0.29337
C          4.89582         5.48348         0.30076
C          6.09310         7.67847        -0.20610
C          4.77272         8.39742        -0.32196
C          5.98213        10.57148        -0.43355
C          4.75513         9.87805        -0.23055
C          5.94869        12.04192        -0.57385
C          4.70163        12.77502        -0.12035
C          6.01994        14.91644        -0.02274
C          4.81987        14.20503         0.23545
C          6.08104        16.31106         0.28241
C          4.90927        17.00590         0.72615
C          6.22208        19.08203         1.00824
C          4.92056        18.42774         1.00607
C          6.45171        20.34645         1.57570
C          4.56103        21.42294         1.61742
C          5.76112        23.59434         1.50985
C          4.65769        22.79990         1.23277
C          5.98205        24.90931         0.99136
C          4.88662        25.56946         0.33802
C          5.97987        27.76406         0.59104
C          4.88815        26.93934         0.08149
C          6.13563        29.12954         0.06937
C          5.05762        29.71060        -0.60644
C          6.42039        31.86736        -0.76989
C          5.21424        31.06796        -1.18535
C          6.44974        33.37801        -0.92002
C          5.31008        34.07382        -1.61560
C          6.40337        36.36260        -1.04054
C          5.25634        35.60522        -1.62428
C          6.30874        37.84189        -0.84527
C          4.99697        38.44014        -0.86588
C          8.60015         3.01751         0.04201
C          7.36029         3.56039         0.46484
C          8.56041         6.52079         0.58698
C          7.32471         5.81238         0.77354
C          8.53722         7.87636         0.13161
C          7.30457         8.50997        -0.09736
C          8.48643        10.62380        -0.49743
C          7.24388         9.90353        -0.36041
C          8.43295        12.03966        -0.94130
C          7.20309        12.81979        -0.65067
C          8.41232        14.98783        -0.80323
C          7.19492        14.19423        -0.50203
C          8.49590        16.38628        -0.34688
C          7.32597        17.03597         0.11090
C          8.59313        19.13775         0.24236
C          7.37942        18.42200         0.44494
C          8.64994        20.54271         0.52159
C          7.58889        21.14437         1.24653
C          8.62280        23.37395         0.91636
C          7.66987        22.53460         1.51685
C          8.51671        24.83929         0.99740
C          7.26563        25.53605         1.09370
C          8.53296        27.73740         1.03779
C          7.27326        27.00103         1.08893
C          8.53441        29.16569         0.85498
C          7.36887        29.83900         0.33884
C          8.63117        31.95333         0.33451
C          7.45897        31.21304         0.04550
C          8.59839        33.38196         0.40145
C          7.40421        34.15964        -0.03375
C          8.65693        36.49967         0.00372
C          7.42856        35.68047        -0.17175
C          8.75037        37.82107        -0.57096
C          7.49648        38.52892        -0.78555
C         11.08069         3.37989        -0.18920
C          9.83431         3.62595         0.37265
C         11.01226         6.45871         0.29316
C          9.80191         5.87433         0.73122
C         10.98246         7.86497         0.07022
C          9.77274         8.58214        -0.01025
C         10.98747        10.70435        -0.50995
C          9.72470         9.98581        -0.34986
C         11.00056        12.08778        -0.79987
C          9.73839        12.77575        -1.13264
C         10.99103        14.97973        -0.88532
C          9.71867        14.27180        -1.11720
C         10.98125        16.38617        -0.73477
C          9.73908        17.07058        -0.45575
C         10.99118        19.19354        -0.40189
C          9.77707        18.46930        -0.20386
C         10.93280        20.65750        -0.42612
C          9.76126        21.33905         0.14736
C         10.96371        23.53135         0.00701
C          9.74156        22.73685         0.30030
C         10.97344        24.97417         0.44091
C          9.70772        25.59253         0.89559
C         11.00718        27.68762         1.28793
C          9.72308        27.00363         1.04696
C         11.00256        29.19704         1.33600
C          9.75157        29.87916         0.97137
C         11.04400        31.99311         0.93362
C          9.80892        31.27165         0.75634
C         11.01225        33.40131         1.00021
C          9.70030        33.96213         1.02379
C         11.10926        36.45381         0.45886
C          9.76382        36.05440         0.71164
C         11.19991        37.73433        -0.21217
C         10.00292        38.42510        -0.61128
C         13.47561         3.57796        -0.25284
C         12.24793         4.22562        -0.04319
C         13.43943         6.37407        -0.16285
C         12.24085         5.67728         0.09426
C         13.40328         7.84196        -0.54701
C         12.28670         8.60600         0.14546
C         13.44463        10.71481        -0.48690
C         12.22282        10.03538        -0.33279
C         13.45322        12.12369        -0.69067
C         12.21582        12.81641        -0.80850
C         13.44305        14.96935        -0.88953
C         12.20684        14.26036        -0.87406
C         13.45447        16.40000        -0.87626
C         12.22297        17.10133        -0.74080
C         13.47396        19.25076        -0.62516
C         12.21945        18.53278        -0.62811
C         13.51476        20.64770        -0.35285
C         12.27126        21.42765        -0.36216
C         13.43071        23.46108         0.55543
C         12.24160        22.80355         0.08525
C         13.48241        24.93227         0.64498
C         12.27017        25.64171         0.72059
C         13.50724        27.73118         1.08931
C         12.28796        27.01557         1.02504
C         13.50492        29.17807         1.18792
C         12.29176        29.89210         1.16803
C         13.49053        32.05479         1.20488
C         12.28427        31.30466         1.07997
C         13.43123        33.48599         1.20220
C         12.21773        34.20127         1.06755
C         13.54154        36.27629         0.59310
C         12.25018        35.65188         0.77606
C         13.61985        37.62823         0.07144
C         12.45992        38.30585        -0.37848
C         15.94202         3.58084        -0.39320
C         14.70693         4.26726        -0.28949
C         15.91925         6.41829        -0.38253
C         14.68417         5.69994        -0.29336
C         15.92824         7.86239        -0.37190
C         14.71370         8.57938        -0.37975
C         15.93564        10.70716        -0.37027
C         14.70469         9.98786        -0.40194
C         15.94725        12.14344        -0.59451
C         14.69355        12.84083        -0.79440
C         15.89657        14.97784        -1.25547
C         14.66522        14.23983        -0.95488
C         15.92962        16.43666        -1.08610
C         14.70486        17.11796        -0.91094
C         15.94218        19.25822        -0.77570
C         14.70658        18.54876        -0.76949
C         15.95607        20.65682        -0.49389
C         14.73556        21.32073        -0.19250
C         15.98390        23.50031         0.15251
C         14.79344        22.69169         0.33954
C         15.96864        24.90889         0.45018
C         14.72777        25.61108         0.72380
C         15.97228        27.76209         0.90213
C         14.73684        27.02978         0.90379
C         15.98088        29.18011         1.09198
C         14.73724        29.91055         1.19457
C         15.98267        32.05686         1.37822
C         14.72868        31.32720         1.27764
C         15.95811        33.44997         1.41451
C         14.68067        34.24499         1.56087
C         15.99286        36.28891         0.86492
C         14.74279        35.61970         0.93746
C         16.04027        37.66767         0.44115
C         14.85574        38.29312         0.01646
C         18.40744         3.58448        -0.52318
C         17.15085         4.27935        -0.44745
C         18.39323         6.42978        -0.42246
C         17.14650         5.71740        -0.42123
C         18.41533         7.85306        -0.34024
C         17.16458         8.56969        -0.32149
C         18.41252        10.69053        -0.02743
C         17.14748         9.98495        -0.26411
C         18.40834        12.23697        -0.18582
C         17.15666        12.84156        -0.64237
C         18.46774        14.99639        -1.00195
C         17.22494        14.21306        -1.14377
C         18.41204        16.40537        -1.15893
C         17.18512        17.11768        -1.11163
C         18.38920        19.29304        -0.91245
C         17.19177        18.56947        -0.96362
C         18.39642        20.71579        -0.73728
C         17.17334        21.40089        -0.48760
C         18.39594        23.53355        -0.33859
C         17.17381        22.82112        -0.25889
C         18.37400        24.99519        -0.16287
C         17.15949        25.65745         0.35490
C         18.42643        27.77834         0.72696
C         17.19343        27.05769         0.65877
C         18.43088        29.15072         0.98570
C         17.21522        29.88457         1.13101
C         18.46712        32.00739         1.34858
C         17.23382        31.32090         1.32450
C         18.52040        33.45285         1.61463
C         17.18392        34.22116         1.62212
C         18.44145        36.33237         1.15839
C         17.21398        35.64350         1.22301
C         18.45230        37.74242         0.85207
C         17.26185        38.37818         0.48660
C         19.59007         4.26926        -0.54997
C         20.84028         6.41116        -0.49318
C         19.61602         5.70291        -0.48945
C         20.86196         7.79232        -0.41556
C         19.66392         8.54659        -0.32448
C         20.85930        10.74987        -0.21608
C         19.68806         9.98758        -0.19229
C         20.86230        12.15232        -0.32984
C         19.69149        12.91276        -0.45128
C         20.91689        15.08140        -0.76692
C         19.68548        14.31357        -0.75913
C         20.93022        16.39934        -1.04872
C         19.69331        17.16853        -1.43975
C         20.84867        19.40994        -1.35150
C         19.71621        18.56886        -0.81726
C         20.81222        20.75577        -1.25324
C         19.61640        21.45401        -0.81732
C         20.86730        23.57422        -0.40497
C         19.61823        22.85771        -0.58104
C         20.91253        24.88863        -0.07711
C         19.69866        25.71933        -0.07597
C         20.75167        27.96403        -0.12155
C         19.77246        27.06766         0.61156
C         20.74938        29.27658         0.11752
C         19.77780        29.83759         1.13036
C         20.88383        32.07396         0.99489
C         19.70839        31.34458         1.10787
C         20.89556        33.48920         1.02248
C         19.75024        34.20356         1.32300
C         20.88190        36.41182         1.35573
C         19.70903        35.65843         1.32355
C         20.86414        37.81420         1.18031
C         19.68511        38.46525         0.89672
O          6.28984        27.59525         1.99681
O          6.50968        33.67791        -2.34211
O          2.51127         7.96362        -1.02692
O          3.44817        33.67370        -3.20539
O          3.14683        36.24529        -2.92906
O         10.96688        28.40719         2.57522
O         17.88073        33.88358         2.86543
O         18.34940        11.59539         1.12348
O          4.95037        12.52184        -1.54554
O         18.96234        25.72997        -1.32667
O          6.73856        23.11093         2.39781
O          9.82053         4.63195         1.36221
O          5.52552        20.87823         2.48679
O          4.34269        23.62353        -1.06295
O          6.78540        35.02008         0.97895
O          9.53867        35.14026         1.73963
O          1.32377        21.23028         1.86745
O          2.24924        14.39988         2.63295
O         14.14847        22.80067         1.65176
O         10.85400        24.59478        -1.00162
O          3.47090        31.11949        -2.92697
O          5.44172         7.87001        -1.51395
O         16.58372        14.45191        -2.44201
O          7.39169         4.58817         1.44039
O          9.02353        12.21702        -2.27858
O          2.15343        10.08967         2.10737
O          6.36700        31.18325        -2.07437
O          8.90939        14.84292        -2.18302
O          6.34068        36.10297        -2.47744
O         11.49641        21.25538        -1.62169
O         14.57340        34.49746         3.01421
H         14.70432        33.64202         3.47601
O          0.65794        11.98006        -0.60578
H          0.67418        12.90572        -0.92766
O         12.63918         8.65079         1.56196
H         11.92295         9.11776         2.04042
O         19.96320        18.38002         0.61147
H         19.99379        19.26690         1.02819
O         19.73931        17.36501        -2.88497
H         19.59637        16.49473        -3.31284
O          1.65464        35.65347         0.34761
H          0.87922        35.95910         0.86356
O         13.09193         7.85698        -1.97140
H         13.80362         7.37623        -2.44338
O         20.27020        26.80746         1.94538
H         20.41787        27.68955         2.37523
O         20.30261        29.48779         2.46299
H         19.70492        29.89027         3.12870
O          2.80211        25.18923        -2.37175
H          3.33629        24.36553        -2.47473
H          1.30135         2.18663         0.75058
H         -0.83681         3.37989         1.23953
H         -0.90909         5.83662         1.33285
H         -0.98524         7.76550         1.31712
H         -1.04510        10.18938         1.16236
H         -0.95229        12.16254         1.74223
H         -0.83648        14.52831         2.24145
H         -0.93229        16.35592         1.23540
H         -0.98979        18.77363         0.70985
H         -0.87126        20.53696        -0.51774
H         -0.78246        22.90336        -1.07121
H         -0.85875        24.93784        -0.75988
H         -0.81111        27.32076        -1.23590
H         -0.78322        29.26182        -1.39331
H         -0.75702        31.65688        -1.67582
H         -0.71388        33.56413        -2.10776
H         -0.73120        35.95403        -1.60212
H          0.42928        38.06093        -1.01229
H          3.68420         2.25474         0.22663
H          2.48086        39.40518        -0.98782
H          5.95236         2.29639        -0.55556
H          4.90136        39.50234        -0.59242
H          8.59220         2.21949        -0.71361
H          7.51029        39.62908        -0.80398
H         11.21200         2.46584        -0.78869
H         10.09903        39.45688        -0.97886
H         13.48241         2.48388        -0.36875
H         12.56212        39.29730        -0.84295
H         15.94640         2.48082        -0.40982
H         14.89053        39.33339        -0.33920
H         18.39900         2.48524        -0.55601
H         17.27181        39.44677         0.22577
H         20.54579         3.72801        -0.60684
H         21.78433         5.85047        -0.55191
H         21.83224         8.30673        -0.41176
H         21.83466        10.24462        -0.24312
H         21.83980        12.64268        -0.43401
H         21.85930        14.57742        -0.51146
H         21.88678        16.94207        -1.03916
H         21.74789        18.91250        -1.74193
H         21.67810        21.34754        -1.58341
H         21.80297        22.99770        -0.41438
H         21.86362        25.35525         0.21774
H         21.44969        27.51696        -0.84492
H         21.44254        29.95076        -0.40634
H         21.83693        31.54931         0.84395
H         21.84055        34.01016         0.81636
H         21.84882        35.91462         1.51389
H         21.80902        38.37309         1.22654
H         19.67494        39.54622         0.69689
