         280
 CSIRO Nanostructure Databank - Neutral Graphene Oxide Data Set
C         30.50824        31.61536         1.33697
C         30.47475        32.82768         1.10192
C         30.34198        35.94533         0.86235
C         30.52322        37.24401         0.89413
C         30.31180        40.43765        -0.05883
C         30.34719        41.62878        -0.40385
C         32.94980        28.85521         0.75893
C         31.81366        29.31640         1.10704
C         32.83539        31.53146         0.61319
C         31.69903        30.75729         1.34532
C         32.71359        32.97398         0.17358
C         31.40881        33.71559         0.39396
C         32.72453        35.87285         0.34105
C         31.45167        35.17596         0.53491
C         32.69407        37.38090         0.04748
C         31.41403        38.17631         0.57700
C         32.67586        40.34691         0.11884
C         31.39395        39.68043         0.67192
C         32.68868        41.81770        -0.05588
C         31.52643        42.42026        -0.92102
C         32.73055        44.48321        -0.41398
C         31.67178        43.88305        -0.65542
C         35.38300        27.24612        -0.37056
C         35.14330        28.67538        -0.73631
C         34.01670        29.32883         0.00496
C         35.21648        31.59949        -0.32502
C         33.92976        30.79690        -0.09074
C         35.20038        33.04432         0.03016
C         34.00348        33.73424         0.15047
C         35.25643        35.93050         0.40907
C         33.93199        35.18583         0.23710
C         35.20576        37.40062        -0.05682
C         33.95605        38.10497         0.56448
C         35.23363        40.31578         0.51148
C         33.95664        39.58815         0.20199
C         35.20514        41.82532         0.58643
C         33.89764        42.55974         0.31120
C         35.24324        44.63398        -0.11680
C         34.01509        44.02133         0.00813
C         35.47994        45.99371        -0.51421
C         37.82386        27.21424        -0.36798
C         36.50383        26.71014        -0.39012
C         37.76905        28.70148        -0.03127
C         36.48339        29.43896        -0.41116
C         37.75710        31.56106        -0.37743
C         36.47721        30.79574        -0.29488
C         37.72274        33.05246        -0.36259
C         36.52876        33.74361         0.28344
C         37.76752        35.94736         0.16978
C         36.47671        35.21387        -0.20246
C         37.70867        37.40295         0.36407
C         36.51991        38.08694         0.26584
C         37.74843        40.29677        -0.04221
C         36.51817        39.56539         0.44179
C         37.78605        41.78338         0.26744
C         36.55981        42.58034         0.68105
C         37.74407        44.58921        -0.27314
C         36.52700        43.95401         0.01334
C         37.86066        46.00712        -0.90879
C         36.49679        46.64999        -0.75193
C         39.83394        24.35427         0.48922
C         39.10965        25.10878        -0.23538
C         40.30022        27.22711        -0.37902
C         39.01888        26.51825        -0.41860
C         40.25519        28.67397        -0.31177
C         39.07393        29.40033        -0.36832
C         40.22451        31.58648        -0.14042
C         39.06992        30.85866        -0.29441
C         40.16042        33.04486         0.33613
C         39.04952        33.84934        -0.36694
C         40.21405        35.89423         0.66386
C         38.94435        35.25354         0.21118
C         40.22373        37.42127         0.78505
C         38.96553        38.16111         0.48641
C         40.27799        40.23658         0.13633
C         39.00004        39.51901         0.31366
C         40.25186        41.73075        -0.03612
C         38.96551        42.47677         0.08569
C         40.25128        44.62266        -0.22154
C         38.98501        43.91297        -0.08136
C         40.29637        45.99685        -0.40527
C         38.97586        46.77205        -0.20673
C         40.27255        48.76515        -0.97634
C         39.23224        48.14365        -0.75241
C         42.23140        24.52917         1.40069
C         41.23819        24.38676         0.41917
C         42.75015        27.19591         0.18710
C         41.54362        26.55029        -0.29401
C         42.84301        28.66095        -0.27292
C         41.53406        29.39946         0.10246
C         42.70103        31.65873         0.41529
C         41.55107        30.87384        -0.36670
C         42.62188        33.02163        -0.21544
C         41.48499        33.83989         0.16351
C         42.76017        35.86874         1.03103
C         41.50923        35.18114         0.45191
C         42.78269        37.40610         0.87204
C         41.51356        38.15661         0.68961
C         42.78154        40.26249         0.32849
C         41.53998        39.50945         0.43223
C         42.74386        41.75440         0.62012
C         41.50175        42.50471         0.15385
C         42.78996        44.56856        -0.22387
C         41.49007        43.86224        -0.01414
C         42.83911        45.96823        -0.70844
C         41.58780        46.79591        -0.41439
C         42.91575        48.76893        -0.91938
C         41.59345        48.16113        -1.32095
C         43.29301        25.20827         1.41453
C         45.69078        27.55655         0.35997
C         43.69108        26.50309         0.97506
C         45.36962        28.78784        -0.17500
C         44.07873        29.42230         0.21357
C         45.30120        31.68119         0.03077
C         44.05574        30.90976         0.37973
C         45.38176        33.01796         0.31720
C         44.38242        33.80508         1.12986
C         45.22740        35.94475         0.32906
C         44.12234        35.23707         0.68667
C         45.23033        37.40328        -0.07086
C         44.04538        38.14952         0.50422
C         45.28681        40.33628         0.21016
C         43.98239        39.61117         0.25609
C         45.29923        41.79183         0.52679
C         44.02648        42.48010         0.11478
C         45.29067        44.68059         0.36781
C         43.96649        43.96621         0.51238
C         45.33583        45.98611        -0.06820
C         44.24486        46.66647        -0.86248
C         43.91696        48.10613        -0.63805
C         47.53893        27.58741        -0.91551
C         46.73662        26.79508        -0.28509
C         47.57004        28.83799        -1.47114
C         46.24018        29.56020        -1.14711
C         47.61308        31.67473        -0.80900
C         46.43669        30.99956        -0.63556
C         47.69250        33.19818        -0.85108
C         46.36070        33.88590        -0.44215
C         47.73733        36.00596        -0.27814
C         46.56228        35.21448         0.32968
C         47.72795        37.42687         0.24425
C         46.54778        38.09128         0.27931
C         47.78183        40.24665         0.85744
C         46.56750        39.57547         0.31980
C         47.66849        41.67538         1.23472
C         46.43958        42.44774         0.86183
C         47.84971        44.55415         0.79959
C         46.45213        43.96311         1.09535
C         47.70578        45.87204         0.29492
C         46.67730        46.52116         0.02352
C         50.14684        28.94375        -1.54840
C         48.82153        29.56720        -1.69927
C         50.13707        31.53561        -0.50689
C         48.88261        31.01649        -1.24191
C         50.23338        33.08386        -0.58376
C         48.91871        33.72918        -0.05144
C         50.09684        35.80453         0.78533
C         49.02308        35.23460        -0.08904
C         50.25574        37.32365         0.58949
C         49.01388        38.14846         0.41565
C         50.22739        40.22242         1.27435
C         48.98697        39.57037         0.86917
C         50.22012        41.58356         1.50715
C         48.98899        42.41877         1.45646
C         50.30633        44.25332         0.55184
C         49.01662        43.83748         0.96244
C         51.23614        29.56278        -1.46559
C         52.57949        31.62144        -0.55529
C         51.52471        30.83510        -0.92438
C         52.51429        32.79439        -0.00284
C         51.46498        33.66842         0.17360
C         52.46369        35.79043         1.12310
C         51.43425        35.00504         0.65244
C         52.44100        37.05565         1.38182
C         51.47502        37.99485         1.16713
C         52.42048        40.20264         0.23768
C         51.57673        39.47600         1.31799
C         52.56188        41.41810         0.01083
C         52.03877        42.62283         0.53624
C         51.32497        43.70002         0.01618
O         49.92317        37.86309        -0.72541
O         31.78255        33.21467        -0.92460
O         35.91887        39.87096         1.75242
O         40.11395        36.56439         1.95976
O         34.27218        31.30835        -1.42362
O         48.11276        42.08146         2.57542
O         43.97279        33.37413         2.20512
O         43.70430        37.90851         1.91151
O         34.34667        42.21787         1.69386
O         44.11205        30.01215         1.54942
O         41.65650        25.21893        -0.72825
O         44.91126        26.98647         1.36801
O         48.88832        30.68215        -2.65896
O         46.10561        40.09835        -1.00455
O         32.81129        31.34115         2.06292
O         40.32209        40.85529        -1.23670
O         51.42997        42.23071         1.83883
O         33.34051        39.80231        -1.09822
O         42.81231        44.88597        -1.67120
O         37.56540        32.39747        -1.64378
O         42.68460        41.74210         2.06718
H         42.75181        42.68175         2.37687
O         41.85325        30.97573        -1.75987
H         42.10027        30.07804        -2.11105
O         45.44723        29.72146        -2.38168
H         46.06260        29.97976        -3.10256
O         38.19906        45.87686        -2.27159
H         37.46649        45.43437        -2.74646
O         47.47704        36.14681        -1.71977
H         48.26737        36.59094        -2.10081
O         39.44157        34.04905        -1.74149
H         39.06299        33.29455        -2.25874
O         35.06617        37.51268        -1.47691
H         35.61191        36.81113        -1.90688
O         39.83323        33.02196         1.72147
H         40.56436        32.56652         2.20269
O         36.76838        42.83869         2.09825
H         35.88022        42.87810         2.52683
O         46.90375        35.00289         1.71084
H         46.18289        34.51230         2.16064
O         42.27053        31.79331         1.76329
H         42.72853        31.09858         2.29524
O         44.01074        42.45242        -1.32830
H         44.38364        41.60080        -1.64161
O         43.18015        33.31037        -1.35898
H         43.93363        32.73351        -1.61728
O         38.72097        46.84039         1.19610
H         37.80355        47.16445         1.32489
O         52.23710        39.73867         2.53843
H         52.28883        40.71687         2.65331
O         47.85305        33.48715        -2.25412
H         48.80228        33.36630        -2.50890
O         43.61332        44.12909         1.91576
H         44.45426        44.07518         2.44542
O         32.58812        37.46988        -1.36618
H         31.94519        36.80077        -1.67974
O         49.71708        35.65204         2.20416
H         50.50721        35.86070         2.74936
O         46.21910        44.15645         2.52662
H         46.47537        45.07600         2.75435
O         35.51323        35.93603         1.83735
H         34.82586        36.51303         2.26452
O         49.93649        31.10191         0.83083
H         50.53189        31.60194         1.42783
O         33.95064        38.00417         1.99984
H         34.61557        38.65608         2.34265
O         41.75966        47.21909         0.95320
H         40.90118        47.56961         1.27975
O         37.64266        40.22867        -1.50194
H         38.52721        40.49912        -1.85704
O         42.58101        35.62588         2.44120
H         43.02957        36.35328         2.92876
O         31.35630        40.02739         2.05483
H         30.51406        39.71001         2.44091
O         36.33840        35.18895        -1.63799
H         37.10412        34.70954        -2.02495
O         41.45675        29.39766         1.54651
H         41.63900        28.48603         1.86162
O         48.77869        33.26412         1.30993
H         48.75597        34.05405         1.90651
O         50.43788        33.45146        -1.95997
H         51.26925        33.03216        -2.27216
O         45.61543        34.20317        -1.64403
H         46.29749        34.40361        -2.33479
O         45.05689        37.44352        -1.50605
H         45.85820        37.01071        -1.90096
O         31.71470        42.15856        -2.28787
H         31.76538        41.18966        -2.42805
O         42.93534        28.62488        -1.72161
H         43.88650        28.65776        -1.99820
O         37.71197        28.74894         1.43789
H         38.50734        28.29704         1.79175
O         34.93139        28.77691        -2.14278
H         34.58835        29.68284        -2.33672
O         36.81266        33.66319         1.68973
H         36.31550        34.38512         2.14974
O         41.65100        47.81391        -2.66799
H         41.68965        48.62090        -3.21973
O         44.65867        46.54250        -2.22620
H         44.15325        45.79562        -2.62503
