         260
 CSIRO Nanostructure Databank - Neutral Graphene Oxide Data Set
C         31.28595        32.28428         2.07270
C         31.14658        33.45905         1.68789
C         30.43864        35.99296        -0.11410
C         30.46802        37.21729        -0.22101
C         30.24279        40.43813        -0.96722
C         30.19219        41.67100        -1.02534
C         33.20800        28.94692         1.55404
C         32.51402        29.96511         1.88050
C         32.92972        31.82054         0.47772
C         32.07297        31.23202         1.50513
C         33.00270        33.16832         0.21763
C         32.06118        34.23700         0.78501
C         32.60393        35.74474        -1.20730
C         31.42185        34.92232        -0.45503
C         32.53478        37.25193        -1.48319
C         31.33313        38.07034        -1.05561
C         32.65663        40.32273        -1.14974
C         31.40704        39.54040        -0.84712
C         32.61392        41.83912        -1.26608
C         31.27798        42.61814        -1.28426
C         32.55601        44.50014        -0.36696
C         31.50241        43.91873        -0.66468
C         35.80357        28.75469         3.43700
C         35.66917        29.23631         2.11388
C         34.59689        28.78998         1.26253
C         35.40637        31.49207        -0.19542
C         33.94313        30.97439        -0.22852
C         35.32788        32.88366        -0.84485
C         34.02666        33.63892        -0.74067
C         35.20766        35.86446        -1.25623
C         33.95295        35.07772        -1.19607
C         35.07820        37.35539        -1.06988
C         33.85620        37.88780        -1.93094
C         35.19418        40.30685        -1.12647
C         33.92963        39.77695        -1.83201
C         35.19633        41.80125        -0.92066
C         33.86052        42.44367        -0.63239
C         35.06254        44.58664         0.38307
C         33.83432        43.82556        -0.04344
C         35.19670        45.99672        -0.22780
C         38.19765        29.12460         3.57499
C         36.92615        28.70885         4.01145
C         38.06424        29.86545         2.31660
C         36.82560        29.98309         1.63742
C         37.88018        31.85709         0.24030
C         36.67953        30.98591         0.49027
C         37.82334        33.11363        -0.56322
C         36.55976        33.70733        -1.11158
C         37.66261        35.95388        -1.37798
C         36.46186        35.21206        -1.29012
C         37.63986        37.39612        -1.67451
C         36.32719        38.12907        -1.44662
C         37.61610        40.17436        -0.64404
C         36.35309        39.58209        -1.07948
C         37.64120        41.58854        -0.31477
C         36.47352        42.51669        -0.49077
C         37.53185        44.69115         0.55995
C         36.45288        43.91195         0.12828
C         37.38917        46.16206         0.80173
C         36.20753        46.62118         0.16084
C         40.90550        26.95323         4.83287
C         39.77746        27.56482         4.87271
C         40.77732        28.66164         2.56254
C         39.41897        28.77517         4.22535
C         40.42483        29.39796         1.35579
C         39.35597        30.47932         1.71350
C         40.31917        31.77999        -0.19372
C         39.11193        31.32301         0.49225
C         40.32560        33.23174        -0.50125
C         39.03765        33.98906        -0.40789
C         40.20563        36.12976        -1.17178
C         38.91689        35.48647        -0.67998
C         40.20643        37.46623        -1.39126
C         38.92877        38.24560        -1.67234
C         40.07185        39.99428        -0.23073
C         38.81758        39.47218        -0.77925
C         40.06781        41.45826         0.27278
C         38.88551        42.15255        -0.15642
C         40.05086        44.41013         1.27084
C         38.91573        44.21657         0.49155
C         40.09958        45.48400         2.22728
C         38.27963        46.81465         1.63859
C         40.01431        48.62120         1.80586
C         38.88660        48.08870         1.66611
C         42.97111        26.00948         3.43630
C         41.70907        26.61603         3.72205
C         42.87609        27.56807         0.82750
C         41.34250        27.40825         2.56876
C         42.78201        28.82786         0.22939
C         41.48145        29.61115         0.24671
C         42.66054        31.56090        -0.95723
C         41.43829        30.99711        -0.31632
C         42.69136        32.99044        -1.44935
C         41.44918        33.83345        -1.26751
C         42.73697        36.01964        -1.69962
C         41.41949        35.31354        -1.49099
C         42.78365        37.49466        -1.40381
C         41.48984        38.23847        -1.40951
C         42.52722        39.80822         0.31921
C         41.45436        39.63778        -0.78633
C         42.49033        41.24972         0.92467
C         41.35368        42.18904         0.54531
C         42.49623        44.12689         1.86988
C         41.32367        43.62395         1.05225
C         42.54179        45.59937         2.13600
C         41.29097        46.13385         2.56829
C         42.60152        48.50199         1.87541
C         41.28057        48.39235         2.35182
C         43.77797        26.08718         2.49238
C         45.18095        26.74379         0.46083
C         44.06332        26.76490         1.26228
C         45.15832        28.72095        -0.65324
C         43.94129        29.48971        -0.39747
C         45.17585        31.43689        -1.31165
C         43.93139        30.81307        -0.80107
C         45.27141        32.93693        -1.46038
C         44.00703        33.71487        -1.67232
C         45.34000        35.93068        -1.45274
C         44.00662        35.23191        -1.70777
C         45.18828        37.32831        -0.84496
C         44.02415        38.04718        -0.77903
C         45.04565        39.90201         0.50128
C         43.93475        39.35510        -0.08861
C         45.02044        41.11713         1.38276
C         43.72252        41.85629         1.53002
C         45.05433        44.07144         2.18916
C         43.74746        43.31979         1.98745
C         45.00946        45.57445         1.99611
C         43.77780        46.29123         2.04156
C         43.56402        47.70239         2.04920
C         47.50392        27.21315        -0.06963
C         46.60976        26.67379         0.60459
C         47.68585        28.45774        -0.82378
C         46.41595        29.26580        -0.77524
C         47.75224        31.46117        -1.04634
C         46.47473        30.68982        -1.17833
C         47.73476        32.96098        -1.09591
C         46.53339        33.64281        -1.06167
C         47.36440        35.82288         0.01111
C         46.19487        35.04389        -0.50496
C         47.61959        37.13476        -0.10392
C         46.49884        38.04892        -0.59451
C         47.60986        39.76606         0.90684
C         46.33496        39.16574         0.41702
C         47.57527        41.23755         1.17053
C         46.31192        41.84788         1.68913
C         47.69424        44.07290         1.83480
C         46.38595        43.32128         2.07151
C         47.42546        45.43886         1.87844
C         46.31103        46.04722         1.89023
C         50.34515        28.70430        -0.79575
C         48.97799        29.14809        -1.13625
C         50.27361        31.41778        -1.63168
C         49.03490        30.68559        -1.14424
C         50.26586        32.92186        -1.67541
C         49.07061        33.59036        -1.06981
C         50.27116        35.77727        -0.70875
C         49.26282        34.75379        -0.37949
C         50.23860        37.13907        -0.08820
C         48.92475        37.68726         0.50715
C         50.11811        39.79477         1.09904
C         48.93316        39.21510         0.35760
C         50.04945        41.05133         1.63724
C         48.86935        41.91781         1.42480
C         50.13810        43.83314         1.11282
C         48.93065        43.39533         1.65424
C         51.40645        29.31801        -0.88756
C         52.57627        31.63157        -0.68507
C         51.89060        30.56883        -1.46823
C         52.52102        32.85878        -0.76112
C         51.66311        33.69685        -1.66162
C         52.65869        36.08132        -1.02596
C         51.54534        35.17908        -1.34916
C         52.50524        37.23619        -0.58814
C         51.38147        37.91335         0.00853
C         52.11573        40.39898        -0.01214
C         51.48406        39.23684         0.74113
C         52.34339        41.59823        -0.12748
C         52.29671        43.03707        -0.13493
C         51.25279        43.62568         0.56570
O         36.76571        37.79189        -2.79037
O         33.62867        30.04005        -0.93809
O         34.02934        40.10837        -3.10193
O         48.25484        41.84238         0.02524
O         39.08887        43.43843        -0.65315
O         34.32641        32.79398        -1.90002
O         48.34505        35.02898         0.65147
O         42.45578        31.90953        -2.38614
O         39.91775        31.35713         2.62172
O         46.86669        38.87247         1.75682
O         33.08190        35.10288        -2.40214
O         36.27255        30.51891        -0.84593
O         50.08863        32.10169        -2.87981
O         40.60357        29.40734         3.74172
O         31.43162        37.57909        -2.39888
O         42.81747        43.44253         3.11834
O         45.78723        43.61623         3.36693
O         45.70157        40.98201         2.67501
O         33.63971        42.65691         0.80534
O         35.98494        42.54847        -1.88576
O         41.68906        26.94165         1.27569
O         42.73973        41.13624         2.34868
O         45.81924        30.82581        -2.48357
O         39.92655        40.34018         1.17871
O         42.31670        38.23289        -2.60629
O         41.03948        34.38705        -2.56095
O         44.93242        27.34439        -0.79846
O         32.05233        42.40267        -2.47644
O         38.86701        45.99383         2.66029
O         48.29692        28.42700        -2.15945
O         39.89041        33.87002         0.77008
O         37.49599        33.02665        -1.99643
O         44.79435        33.26998        -2.81388
O         32.34336        39.89828         0.21276
O         48.53652        31.11629         0.16445
O         50.54636        35.79627        -2.17081
O         43.40306        35.69627        -2.95618
O         40.28878        28.77067         0.08008
O         41.70436        43.29371        -0.32533
O         41.20675        47.33377         3.33818
O         42.16182        38.87277         1.35092
H         42.41141        39.28040         2.21587
O         39.13541        38.74925        -3.01311
H         38.26110        38.72881        -3.47202
O         32.83003        35.21060         1.49110
H         32.21923        35.88348         1.86099
O         49.07319        39.50184        -1.04262
H         48.88320        40.46026        -1.17279
O         46.04762        36.06642        -2.69833
H         45.37771        36.00972        -3.41969
O         38.70395        36.09063         0.64968
H         39.27875        35.59661         1.28319
O         51.06058        41.56082         2.37167
H         51.74946        40.86367         2.48362
O         53.25578        43.72657        -0.76835
H         53.10166        44.68891        -0.69134
O         48.96454        37.38683         1.90977
H         48.80048        36.42457         2.02208
O         34.69156        37.63638         0.29296
H         35.36151        37.26663         0.90560
O         34.95743        28.27954         0.11417
H         34.20087        28.17786        -0.50668
O         34.97534        44.73261         1.78969
H         34.03341        44.74290         2.06017
O         41.72570        40.60603        -1.81164
H         41.99916        40.11701        -2.62411
O         46.82031        38.65024        -1.86531
H         46.83693        37.92265        -2.53131
O         52.44446        30.43308        -2.70882
H         52.62490        31.32213        -3.08695
O         30.91873        33.93568        -1.30187
H         30.69153        34.33056        -2.16898
O         45.31833        34.75969         0.62797
H         45.87831        34.48602         1.38642
O         52.28118        39.05847         1.92640
H         53.11243        38.59958         1.67966
O         52.23760        33.57399        -2.96099
H         51.85256        34.26530        -3.54081
O         34.00731        37.65567        -3.27318
H         34.33433        38.50086        -3.69525
