         324
 CSIRO Nanostructure Databank - Neutral Graphene Oxide Data Set
C          1.15784         2.06984         0.59640
C          1.10843         3.42850         0.27292
C          2.37836         1.41134         0.58998
C          2.26163         4.11522        -0.13273
C          1.11935         6.36492         0.38539
C          1.24466         7.67016         0.72306
C          2.19594         5.60224        -0.29179
C          2.46658         8.43846         0.55298
C          1.44979        10.55664         1.45024
C          1.54916        11.83064         1.91760
C          2.57042         9.76911         0.97570
C          2.82545        12.58265         1.94362
C          1.65619        14.91478         2.31002
C          1.72504        16.27838         2.31623
C          2.85893        14.10051         2.10088
C          2.91530        17.00781         1.95212
C          2.97257        18.45720         2.07954
C          3.56038         2.04372         0.13823
C          3.49045         3.41285        -0.30680
C          4.78844         1.30072         0.36919
C          4.67577         4.16764        -0.72059
C          3.47429         6.36290        -0.53077
C          3.59992         7.77163        -0.06657
C          4.72482         5.58379        -0.69037
C          4.79255         8.41863        -0.29585
C          3.89855        10.41135         0.99703
C          4.00579        11.87729         1.33100
C          5.05952         9.73287         0.31006
C          5.01135        12.66351         0.53383
C          4.07000        14.86179         1.56411
C          4.01656        16.32936         1.44231
C          5.03615        14.16451         0.66423
C          5.20676        17.02311         1.00535
C          4.05514        19.16467         1.69280
C          5.19847        18.53817         0.93894
C          5.95195         1.49741        -0.34526
C          5.87598         3.53638        -1.11530
C          7.29651         1.15805        -0.03624
C          7.14335         4.14246        -1.09372
C          5.94027         6.25248        -0.91393
C          5.91282         7.73166        -0.98012
C          7.17431         5.55929        -1.03709
C          7.20753         8.46444        -1.11991
C          6.24809        10.51443        -0.14044
C          6.17690        11.99901        -0.14715
C          7.27552         9.90259        -0.76672
C          7.43542        12.76425        -0.41060
C          6.26187        14.92448         0.22699
C          6.33466        16.35370         0.59757
C          7.49290        14.17566        -0.13158
C          7.54878        17.12346         0.13900
C          6.55179        19.09155         1.29331
C          7.68663        18.42164         0.91553
C          8.41332         1.89824        -0.48335
C          8.38414         3.30304        -1.04515
C          9.67384         1.29434        -0.29172
C          9.66810         4.09657        -0.89194
C          8.44323         6.28639        -1.08449
C          8.46865         7.71663        -1.14751
C          9.63377         5.57414        -0.93392
C          9.67664         8.47024        -1.27914
C          8.42761        10.66514        -1.37170
C          8.57163        12.07748        -0.84750
C          9.70866         9.85769        -1.28252
C          9.85246        12.72848        -0.94679
C          8.71822        14.85018        -0.16197
C          8.80316        16.27182         0.12400
C          9.92684        14.12189        -0.52059
C         10.02468        16.89086         0.27221
C          8.98717        18.98557         1.06597
C         10.13096        18.29802         0.64407
C         10.91399         1.98474        -0.27359
C         10.86315         3.49890        -0.16429
C         12.12067         1.31864        -0.17810
C         12.16790         4.11570        -0.73203
C         10.89859         6.33610        -0.79467
C         10.92903         7.68677        -1.43029
C         12.19674         5.63214        -0.63898
C         12.23975         8.34122        -1.75986
C         10.93623        10.58956        -1.67398
C         11.01923        12.03816        -1.35160
C         12.19752         9.83509        -2.02009
C         12.31014        12.68360        -1.41676
C         11.14966        14.76559        -0.50247
C         11.26452        16.12215         0.05314
C         12.30752        14.15580        -1.19467
C         12.55995        16.88462        -0.09065
C         11.37584        18.97307         0.56113
C         12.54572        18.35437         0.09703
C         13.38024         2.01835         0.10985
C         13.39696         3.53783        -0.07002
C         14.67244         1.36172         0.08734
C         14.67874         4.24281        -0.24294
C         13.48632         6.33109        -0.91890
C         13.51278         7.67425        -1.33177
C         14.69023         5.63924        -0.59927
C         14.75095         8.37469        -1.40068
C         13.51063        10.60073        -2.25059
C         13.51729        12.02109        -1.66353
C         14.78176         9.77305        -1.94052
C         14.80172        12.73612        -1.71476
C         13.55374        14.95154        -1.44241
C         13.70090        16.28935        -0.81603
C         14.80117        14.24591        -2.00812
C         14.87763        16.99339        -0.90268
C         13.73383        19.06163        -0.12242
C         14.92370        18.40517        -0.53364
C         15.85948         2.09696         0.16061
C         15.86194         3.55180         0.02022
C         17.09720         1.41932         0.27487
C         17.10531         4.27089         0.07379
C         15.91842         6.35678        -0.58159
C         15.93642         7.72608        -0.97729
C         17.12448         5.67595        -0.16082
C         17.24585         8.43113        -0.93000
C         16.04975        10.56317        -1.77874
C         15.99629        12.04991        -1.72493
C         17.29078         9.88923        -1.26029
C         17.32895        12.72578        -1.83562
C         16.08814        14.97156        -1.65544
C         16.10700        16.31157        -1.29862
C         17.35577        14.27491        -1.88425
C         17.34941        17.04435        -1.22418
C         16.12293        19.10787        -0.64178
C         17.35027        18.44977        -0.94984
C         18.31945         2.11064         0.43670
C         18.30870         3.56906         0.39100
C         19.52175         1.40145         0.54166
C         19.50240         4.29130         0.55809
C         18.34046         6.39828         0.04131
C         18.39058         7.83482        -0.18253
C         19.50099         5.69968         0.42508
C         19.53654         8.57228         0.02597
C         18.38078        10.74673        -0.69795
C         18.52736        12.10059        -1.25896
C         19.59056        10.05106        -0.13987
C         19.73813        12.78119        -1.11089
C         18.62079        14.93894        -1.55414
C         18.59362        16.37497        -1.38879
C         19.78896        14.19389        -1.39354
C         19.79330        17.10063        -1.26919
C         18.56250        19.17136        -0.93648
C         19.79981        18.51472        -1.08215
C         20.77487         2.04959         0.89413
C         20.75330         3.60091         0.94334
C         22.07000         1.40928         0.68888
C         22.03561         4.29699         0.71656
C         20.74171         6.43659         0.72651
C         20.76172         7.93627         0.54072
C         22.01445         5.70011         0.60858
C         22.06505         8.62224         0.36287
C         20.89252        10.76154        -0.19332
C         20.94305        12.11105        -0.60020
C         22.09372        10.06081         0.15870
C         22.20056        12.81716        -0.54224
C         21.08694        14.88994        -1.38676
C         21.07526        16.39657        -1.37893
C         22.30484        14.20104        -0.89317
C         22.27171        17.07737        -0.75063
C         21.04673        19.22681        -1.08089
C         22.27621        18.56861        -1.00149
C         23.27101         2.11816         0.70498
C         23.26012         3.58430         0.70356
C         24.50864         1.43881         0.52872
C         24.46545         4.29495         0.48711
C         23.20440         6.41394         0.37481
C         23.22906         7.86824         0.35265
C         24.40288         5.67581         0.22720
C         24.53347         8.53604         0.57015
C         23.31813        10.76086         0.21812
C         23.38954        12.14182        -0.12709
C         24.55225        10.06890         0.61648
C         24.63543        12.85113        -0.02672
C         23.50146        14.90836        -0.73322
C         23.58082        16.37162        -1.14525
C         24.67847        14.25202        -0.25056
C         24.74265        17.11776        -0.54505
C         23.50804        19.24000        -0.94390
C         24.71680        18.55953        -0.62979
C         25.75445         2.10642         0.43410
C         25.80260         3.59664         0.71618
C         26.93560         1.42281         0.21046
C         26.94540         4.26826        -0.01255
C         25.60588         6.37584        -0.24846
C         25.77659         7.85499         0.05638
C         26.75892         5.50762        -0.49794
C         27.10448         8.49672         0.39878
C         25.84254        10.76281         0.49867
C         25.86363        12.15395         0.29216
C         27.08088         9.99771         0.73467
C         27.07466        12.89728         0.47504
C         25.87724        15.00215         0.03324
C         25.84680        16.43646        -0.05293
C         27.08318        14.31360         0.41031
C         26.98710        17.23548         0.43876
C         25.89687        19.29552        -0.39143
C         27.07002        18.66644         0.07609
C         28.24014         2.09411         0.00550
C         28.27856         3.59472        -0.17843
C         29.46300         1.42091         0.47089
C         29.55794         4.32185         0.13956
C         28.65207         6.60494        -0.31397
C         28.44940         7.89139         0.18750
C         29.68814         5.75593         0.16022
C         29.60836         8.56464         0.68668
C         28.37617        10.70468         0.71323
C         28.30689        12.17876         0.86394
C         29.56519        10.01626         0.79896
C         29.58962        12.94788         0.97031
C         28.31362        15.04382         0.62308
C         28.28964        16.50721         0.75024
C         29.56213        14.41236         0.76519
C         29.54621        17.26240         0.66773
C         28.27437        19.35061         0.24529
C         29.50724        18.67674         0.51760
C         30.60174         2.12036         0.68385
C         30.66728         3.56564         0.55903
C         31.85748         4.22573         0.98759
C         30.82523         6.41091         0.73420
C         30.81572         7.84546         0.85705
C         31.93048         5.59504         1.10875
C         32.02019         8.58474         1.18924
C         30.87685        10.72745         0.77122
C         30.89550        12.23433         0.78892
C         32.06865         9.93636         1.13639
C         32.08153        13.04650         1.12716
C         30.78021        15.13155         0.88329
C         30.78506        16.57657         0.75249
C         31.99895        14.40548         1.14943
C         31.98114        17.33469         0.72929
C         30.72794        19.39847         0.52054
C         31.94148        18.72659         0.63061
O         15.70040         9.95866        -3.05936
O          2.51749         6.12975        -1.62485
O         24.51830         9.22911         1.83592
O         28.86055        12.58066         2.19025
O         27.76542         6.09994        -1.26416
O         12.48769        14.94351        -2.46796
O         21.29406        15.67702        -2.63418
O         27.02592         8.96901         1.77997
O         13.22040         2.99272         1.25291
O          4.94556        12.33416        -0.89219
O         12.24781        16.16824         1.16979
O         18.57673        10.69041         0.75162
O         11.26509        10.20945        -3.07656
O          3.91484        12.02299         2.76956
O         20.68740         2.83423         2.15774
O         11.49155         7.60574        -2.78431
O         17.77293         8.91020        -2.23173
O         27.37221        16.96457         1.81874
O         28.35958         2.71351        -1.34642
O          3.99883        14.45887         2.95747
O          6.31302         8.26051        -2.30211
O          4.90716         9.66669         1.77578
O         20.63211         7.33307         1.88252
O         25.47421         7.40880        -1.29380
O          5.08770        14.75510        -0.66251
O         17.47695        13.44423        -3.08384
O          5.81351         2.21570        -1.55008
O          9.31919         3.47210        -2.17469
O         11.53962         6.22561         0.53371
O         31.02912        11.51420        -0.48900
O         23.79303        16.44785        -2.57328
H         22.98910        16.06952        -3.01149
O          7.30778        17.49050        -1.25115
H          6.49162        18.05367        -1.25695
O         26.07040         3.73623         2.14726
H         25.34755         3.28576         2.63354
O          4.98155        18.86883        -0.49012
H          4.13605        18.44975        -0.75968
O         14.74036        14.33896        -3.45011
H         13.78716        14.30443        -3.70051
O         13.58428        10.87651        -3.66640
H         12.65793        10.96370        -3.99437
O         22.14104        16.89233         0.68785
H         21.47065        17.52524         1.02061
O         10.68172         3.83988         1.21860
H         11.50155         3.57330         1.70038
O         12.27027         3.75822        -2.12745
H         11.38251         3.81713        -2.54653
O          8.14120        10.80199        -2.79319
H          7.83963         9.92987        -3.12930
H          0.24388         1.54444         0.90467
H          0.14730         3.95366         0.34501
H          2.43615         0.36603         0.92523
H          0.17468         5.85607         0.62448
H          0.39250         8.15895         1.21596
H          0.45224        10.09470         1.44019
H          0.63562        12.34475         2.25047
H          0.68939        14.41603         2.46945
H          0.82042        16.86065         2.54698
H          2.12395        18.96382         2.56379
H          4.78887         0.59098         1.21030
H          4.08308        20.25506         1.83794
H          7.48864         0.29834         0.62433
H          6.62160        20.07291         1.78726
H          9.69042         0.21769        -0.05989
H          9.08471        20.00941         1.45767
H         12.14777         0.22282        -0.27797
H         11.40310        20.04761         0.79620
H         14.71654         0.26707        -0.00856
H         13.75997        20.14566         0.06242
H         17.09794         0.32030         0.31696
H         16.14111        20.18331        -0.41172
H         19.52432         0.31914         0.34387
H         18.53939        20.25798        -0.76980
H         22.08811         0.33070         0.47223
H         21.02357        20.32595        -1.12526
H         24.48921         0.34440         0.41216
H         23.52813        20.33651        -1.03691
H         26.91168         0.32371         0.13143
H         25.89867        20.38266        -0.56018
H         29.42204         0.34131         0.67879
H         28.30562        20.43195         0.04426
H         31.50599         1.60229         1.03676
H         32.71497         3.60740         1.29122
H         32.84270         6.05068         1.51655
H         32.93435         8.02740         1.43624
H         33.01557        10.46179         1.32303
H         33.05138        12.55215         1.27840
H         32.91174        14.97813         1.36396
H         32.95656        16.83479         0.78919
H         30.70668        20.49219         0.41438
H         32.88220        19.29451         0.62345
