         324
 CSIRO Nanostructure Databank - Neutral Graphene Oxide Data Set
C          1.75934         1.20474        -0.45949
C          1.82574         2.36530        -1.23341
C          2.75725         0.95913         0.47281
C          2.82604         3.32757        -0.98379
C          1.76801         6.45721        -2.02864
C          1.71310         7.83023        -1.87487
C          2.80693         5.70780        -1.45421
C          2.77115         8.51133        -1.22761
C          1.57322        10.69678        -1.48849
C          1.53768        12.05623        -1.51282
C          2.76420         9.94913        -1.16683
C          2.76584        12.84488        -1.38214
C          1.62929        15.07659        -1.54537
C          1.63325        16.50161        -1.49075
C          2.74558        14.32221        -1.27167
C          2.77171        17.21298        -1.16997
C          2.76758        18.64398        -0.99981
C          3.82282         1.88178         0.65157
C          3.82051         3.15251        -0.01939
C          4.98164         1.44195         1.34033
C          4.83990         4.17265         0.47837
C          3.87333         6.31600        -0.71810
C          3.87673         7.76197        -0.71167
C          4.95604         5.58588        -0.12029
C          4.98508         8.47557        -0.15664
C          3.89845        10.63240        -0.66334
C          3.99229        12.10316        -0.84229
C          4.97769         9.90724        -0.12944
C          5.02004        12.89463        -0.12588
C          4.05086        14.97902        -1.04591
C          4.05315        16.50415        -1.00058
C          5.10928        14.25723        -0.29053
C          5.15737        17.20475        -0.32116
C          3.89098        19.31589        -0.61964
C          5.10738        18.62025        -0.25018
C          6.20134         2.13763         1.14958
C          6.17683         3.47115         0.64664
C          7.43819         1.50945         1.43928
C          7.39820         4.15754         0.52290
C          6.11935         6.31780         0.27127
C          6.11579         7.74335         0.30116
C          7.37347         5.60150         0.47538
C          7.26466         8.48330         0.86248
C          6.04134        10.64878         0.58995
C          5.98886        12.14422         0.70914
C          7.32043         9.95649         0.81807
C          7.22290        12.88140         1.23282
C          6.24493        15.01569         0.25403
C          6.26684        16.48769         0.19239
C          7.31159        14.32815         0.78238
C          7.35884        17.22668         0.70497
C          6.25173        19.33115         0.14857
C          7.40772        18.64466         0.56360
C          8.67283         2.08692         1.09515
C          8.64386         3.44917         0.60043
C          9.86832         1.35848         1.47286
C          9.84075         4.21313         0.39539
C          8.57796         6.30246         0.61082
C          8.57232         7.71380         1.01544
C          9.82845         5.63285         0.50818
C          9.86646         8.46653         1.02393
C          8.51876        10.69333         0.98946
C          8.51304        12.10159         1.04209
C          9.83295         9.96868         1.04992
C          9.77428        12.84344         1.23363
C          8.48991        15.04372         1.32782
C          8.49051        16.54401         1.36711
C          9.79258        14.33658         1.25587
C          9.80112        17.29915         1.63399
C          8.64820        19.34979         0.75248
C          9.83296        18.70024         1.06246
C         11.13034         1.58404         0.91516
C         11.08981         3.59004         0.18987
C         12.43715         1.28447         1.36081
C         12.32018         4.21509         0.45840
C         11.07037         6.34576         0.49740
C         11.08607         7.79901         0.52393
C         12.28146         5.63341         0.53512
C         12.23004         8.52139         0.13952
C         11.04590        10.66249         0.55769
C         11.05238        12.10545         0.88158
C         12.18545        10.00143         0.11213
C         12.20673        12.92235         0.43392
C         10.96692        15.06007         1.15304
C         11.03162        16.50210         1.24077
C         12.20542        14.39026         0.67643
C         12.24630        17.17345         1.13516
C         11.08983        19.35019         0.99715
C         12.30203        18.63673         1.10524
C         13.58408         2.05991         0.98035
C         13.54269         3.44965         0.62670
C         14.87818         1.45220         1.13024
C         14.77559         4.17968         0.52756
C         13.54977         6.41572         0.69398
C         13.43965         7.73090        -0.05813
C         14.75599         5.58597         0.33633
C         14.53579         8.11697        -0.81715
C         13.38370        10.81800        -0.18228
C         13.47541        12.20611         0.22185
C         14.47997        10.35233        -0.89654
C         14.65629        12.93715         0.17716
C         13.50211        15.07925         0.82026
C         13.49477        16.44505         1.04554
C         14.72031        14.34712         0.55446
C         14.76007        17.16805         1.24723
C         13.54586        19.30775         1.02726
C         14.79157        18.63633         1.07413
C         16.06409         2.11144         0.85362
C         16.03450         3.50247         0.53525
C         17.39242         1.39203         1.00038
C         17.25006         4.22552         0.28888
C         15.93313         6.24457        -0.06160
C         15.82157         7.51715        -0.71715
C         17.19094         5.59376        -0.01517
C         17.01449         8.09442        -1.25336
C         15.77626        10.95763        -0.78289
C         15.88063        12.25952        -0.17311
C         16.93059        10.30076        -1.20054
C         17.11126        12.89427        -0.13313
C         15.94110        15.01030         0.55050
C         16.05732        16.39455         1.02144
C         17.15952        14.35000         0.04379
C         17.29839        17.15842         0.76106
C         16.02359        19.28212         0.90489
C         17.26896        18.58351         0.75355
C         18.58389         2.13549         0.42363
C         18.51298         3.52935         0.18758
C         19.77576         1.44749         0.19018
C         19.66662         4.23717        -0.31298
C         18.44819         6.41550        -0.12034
C         18.28762         7.69740        -0.90061
C         19.61110         5.60618        -0.60793
C         19.47797         8.52455        -1.10987
C         18.24957        10.66029        -0.69953
C         18.34157        12.11419        -0.23723
C         19.48301         9.89284        -1.04009
C         19.67729        12.80088        -0.30326
C         18.48016        15.03129         0.16423
C         18.50351        16.46886         0.54206
C         19.75538        14.23524         0.09471
C         19.69476        17.17833         0.32606
C         18.46891        19.27841         0.41287
C         19.65694        18.58814         0.18263
C         20.94814         2.11695        -0.26840
C         20.89184         3.51440        -0.52365
C         22.19820         1.43737        -0.36653
C         22.07612         4.21714        -0.90354
C         20.76609         6.30567        -1.19257
C         20.75117         7.81018        -1.39453
C         22.06542         5.62013        -1.13487
C         22.03386         8.56882        -1.34150
C         20.71817        10.67650        -1.34249
C         20.74432        12.18135        -1.17635
C         22.02397         9.96085        -1.36817
C         22.04348        12.97725        -1.50215
C         21.02271        14.99319        -0.15302
C         20.99010        16.48476         0.11370
C         22.12329        14.36443        -0.86304
C         22.06979        17.38654        -0.43617
C         20.93490        19.16443        -0.37052
C         22.17617        18.67000         0.32932
C         23.38228         2.08593        -0.73173
C         23.29118         3.49148        -1.09642
C         24.63059         1.41522        -0.41352
C         24.37597         4.23660        -1.58637
C         23.25584         6.35993        -1.31409
C         23.27666         7.80670        -1.31267
C         24.48928         5.64407        -1.43960
C         24.50944         8.46551        -1.24401
C         23.26131        10.73712        -1.26299
C         23.29697        12.11795        -1.27166
C         24.51067         9.94173        -0.88455
C         24.58342        12.88187        -1.35532
C         23.31921        15.16263        -1.11948
C         23.35720        16.67032        -0.80547
C         24.61356        14.39163        -1.26886
C         24.61215        17.22157        -0.23819
C         23.36022        19.24914         0.61254
C         24.59246        18.47982         0.45918
C         25.89000         1.99399        -0.36695
C         26.15955         3.24858        -1.03620
C         26.99043         1.49136         0.43305
C         27.02614         4.20364        -0.59700
C         25.75790         6.31496        -1.32604
C         25.75389         7.74147        -1.22356
C         26.98990         5.59598        -1.04481
C         27.00444         8.44376        -1.04410
C         25.81855        10.61316        -1.24692
C         25.87427        12.11137        -1.25930
C         27.05554         9.86001        -0.93983
C         27.10030        12.75676        -0.77348
C         25.90214        15.10179        -0.88302
C         25.83383        16.49068        -0.29686
C         27.10768        14.22838        -0.59363
C         27.02151        17.09392         0.14761
C         25.77623        19.07102         0.87887
C         27.03172        18.42851         0.69183
C         28.03563         2.31859         0.76437
C         27.97392         3.81648         0.51165
C         29.20061         1.84799         1.48578
C         29.33877         4.39795         0.25497
C         28.19731         6.29967        -0.96875
C         28.23513         7.72216        -1.03438
C         29.44039         5.55034        -0.64324
C         29.47951         8.41822        -0.93860
C         28.26573        10.53857        -0.71648
C         28.27953        11.99956        -0.54846
C         29.48280         9.78632        -0.66758
C         29.48440        12.64100        -0.17164
C         28.21013        14.80298         0.24244
C         28.23494        16.28282         0.41712
C         29.49218        14.02758         0.31277
C         29.55412        16.98258         0.44023
C         28.21627        19.05233         1.10875
C         29.52577        18.48455         0.79744
C         30.33586         2.60007         1.57125
C         30.45750         3.86181         0.85597
C         31.70887         4.59135         0.81846
C         30.77979         6.24710        -0.75758
C         30.75948         7.68039        -1.32660
C         31.84210         5.76175         0.13837
C         32.01776         8.44052        -1.00354
C         30.76124        10.42889        -0.26942
C         30.76015        11.91305        -0.01029
C         32.01775         9.70609        -0.57044
C         32.00601        12.71077        -0.14179
C         30.81354        14.75637         0.51136
C         30.81741        16.24667         0.61809
C         32.02595        14.04199         0.05095
C         31.95759        16.94678         0.91665
C         30.76659        19.05016         1.32893
C         31.92517        18.33595         1.28714
O         30.35867         5.27845        -1.77664
O         14.38056         9.20933        -1.68545
O          8.12715        15.76773         2.56745
O          7.72426         7.94401         2.16572
O         20.56671         6.91666        -2.54866
O         23.31959        16.21688        -2.17742
O          2.78395         4.39684        -1.86893
O         15.53286        16.64324         2.37467
O         10.67838        12.30681         2.28365
O         20.28665        11.60332        -2.43644
O         11.09697         2.29366        -0.31421
O         17.79189        14.99225        -1.16249
O         21.46047        15.61862         1.17398
O          3.86628        12.43019        -2.26844
O         10.08065         9.20139         2.27944
O         26.95973        14.96556        -1.87447
O          4.51762        15.76527        -2.18886
O         21.34981        18.22594        -1.48019
O         29.62780        17.99812        -0.59616
O         30.73624        10.94048         1.11404
O         11.94186        13.83695        -0.69351
O          5.39639        11.33444         1.79422
O         24.65740        13.74059        -2.55687
O         25.41818         3.52979        -2.19555
O         18.29584        11.00497         0.73156
O         25.96943        11.29371        -2.51380
O         27.88856        15.37350         1.54492
O         30.14307        14.11376         1.63791
O         16.85426         9.23180        -2.08373
O         20.04426        13.17730         1.06646
O         24.52669         9.96447         0.58550
H         23.75019         9.45983         0.90850
O          9.90724        17.49851         3.07164
H          9.41128        16.75450         3.49185
O         22.03261        13.27990        -2.91568
H         21.56867        12.54340        -3.37838
O         18.80377         6.82488         1.26391
H         18.62354         6.06443         1.85675
O         13.70847         6.72887         2.12420
H         12.93378         7.27141         2.38846
O         17.31280         0.06817         0.45961
H         17.12005         0.13936        -0.49753
O         30.71548         7.58543        -2.77108
H         30.40849         6.67032        -2.98538
O          7.09696        12.99418         2.67817
H          6.54581        12.22579         2.96602
O         27.46451         4.41938         1.74978
H         28.06983         4.15252         2.47393
O          4.36937         4.49575         1.84084
H          5.09220         4.97176         2.30367
H          0.95127         0.47838        -0.61926
H          1.08515         2.56317        -2.01885
H          2.77187         0.01678         1.03794
H          0.99712         5.92820        -2.60350
H          0.87706         8.38313        -2.31979
H          0.63056        10.15230        -1.63514
H          0.57596        12.57380        -1.63396
H          0.67835        14.57804        -1.78109
H          0.68924        17.03802        -1.66309
H          1.83770        19.19137        -1.21317
H          4.98883         0.44495         1.80433
H          3.87764        20.41203        -0.53379
H          7.42260         0.50256         1.88273
H          6.25087        20.43035         0.11923
H          9.76124         0.61005         2.27292
H          8.67331        20.41970         0.49264
H         12.59302         0.45101         2.06272
H         11.12197        20.42971         0.78157
H         14.92178         0.39022         1.41607
H         13.54148        20.40364         0.92060
H         17.58458         1.26240         2.10438
H         16.03194        20.37755         0.79458
H         19.81512         0.36542         0.38330
H         18.43962        20.37261         0.29902
H         22.24170         0.38244        -0.05496
H         20.88041        20.22868        -0.69061
H         24.51538         0.43567         0.08064
H         23.43363        20.30145         0.92427
H         26.97437         0.44670         0.78131
H         25.74834        20.06392         1.35037
H         29.17706         0.83475         1.91481
H         28.16307        20.01112         1.64464
H         31.21975         2.20874         2.09536
H         32.53789         4.22375         1.44121
H         32.75474         6.36351         0.25765
H         32.97198         7.94500        -1.23807
H         32.97165        10.21316        -0.36523
H         32.93098        12.19702        -0.44038
H         32.94935        14.61376        -0.12095
H         32.91559        16.41588         1.01065
H         30.74182        20.05481         1.77534
H         32.85817        18.78950         1.65014
