         638
 CSIRO Nanostructure Databank - Neutral Graphene Oxide Data Set
C         23.07922        69.95609        -0.21640
C         23.02450        71.41247        -0.01308
C         21.94339        72.21856        -0.56848
C         23.12100        74.30563        -0.08875
C         22.00452        73.61464        -0.52169
C         25.42247        65.59796        -0.29865
C         25.44047        66.97489        -0.19387
C         24.12971        67.71005        -0.02237
C         25.49780        69.85589         0.17708
C         24.23008        69.22282        -0.03425
C         25.55455        71.31110         0.42518
C         24.28714        72.12346         0.41945
C         25.54444        74.05535        -0.66277
C         24.41583        73.64927         0.31080
C         27.87812        61.31858        -0.37559
C         27.87591        62.70947        -0.56821
C         26.65695        63.46008        -0.42913
C         27.84098        65.60704        -0.93379
C         26.62313        64.83696        -0.49208
C         27.90590        67.00364        -0.36428
C         26.69353        67.69433        -0.14531
C         27.97454        69.78081         0.06039
C         26.70993        69.11626         0.05703
C         28.03431        71.23315        -0.32400
C         26.85330        72.03097         0.17071
C         28.07144        74.05397        -0.44246
C         26.86961        73.45439        -0.26413
C         30.33217        57.05666         0.08077
C         30.31475        58.44183        -0.09912
C         29.08857        59.17589        -0.16979
C         30.34726        61.21611        -0.84277
C         29.06722        60.54910        -0.40155
C         30.34552        62.70972        -0.70691
C         29.12227        63.41890        -0.75489
C         30.32353        65.55698        -0.87992
C         29.13332        64.85224        -0.80030
C         30.39115        66.97967        -0.59296
C         29.15014        67.65528        -0.22747
C         30.45174        69.72172         0.34691
C         29.16518        69.04763         0.06842
C         30.45464        71.21193         0.67459
C         29.30081        71.94654         0.03958
C         30.49466        74.07386         0.11878
C         29.32239        73.35516        -0.09532
C         32.84889        52.83283         0.08901
C         32.76878        54.17895         0.38018
C         31.55115        54.92269         0.25132
C         32.85102        57.03557        -0.00612
C         31.53893        56.30958         0.19841
C         32.78159        58.52193         0.26350
C         31.57107        59.19341        -0.06856
C         32.79552        61.31712        -0.15371
C         31.58527        60.57725        -0.26909
C         32.81725        62.71586        -0.47123
C         31.57878        63.37940        -0.71391
C         32.88112        65.53628        -1.18788
C         31.57902        64.80751        -1.05341
C         32.83660        67.06517        -1.27904
C         31.60067        67.65420        -0.62325
C         32.91781        69.83363        -0.37042
C         31.71216        69.01983        -0.07583
C         32.85418        71.28069        -0.19306
C         31.75926        71.91680         0.32565
C         32.98903        74.13017         0.26076
C         31.73793        73.40146         0.64826
C         35.35464        48.59629        -0.14364
C         35.32653        49.97011        -0.04353
C         34.10930        50.72461        -0.06768
C         35.31831        52.81491         0.46668
C         34.08120        52.09441         0.15446
C         35.26926        54.18928         0.78810
C         33.95049        54.89051         0.99155
C         35.16515        57.04582         0.90246
C         34.03883        56.35384         0.61843
C         35.12251        58.52760         1.03053
C         33.92039        59.25714         0.57829
C         35.18606        61.41988         0.46576
C         33.97599        60.67430         0.33810
C         35.23494        62.78445         0.06949
C         34.04868        63.44847        -0.40892
C         35.30672        65.56960        -0.62674
C         34.10347        64.84177        -0.72051
C         35.31765        67.02771        -0.73810
C         34.11536        67.73429        -0.83395
C         35.35020        69.90828        -1.05780
C         34.08228        69.17083        -0.71936
C         35.34498        71.35477        -0.63910
C         34.02608        72.08324        -0.73846
C         35.35777        74.18489        -0.28625
C         34.10382        73.50032        -0.21943
C         37.81659        44.27859        -0.27871
C         37.79636        45.69348        -0.07478
C         36.60198        46.43769        -0.24940
C         37.79375        48.48607         0.29309
C         36.58500        47.82825        -0.06085
C         37.73268        49.92250         0.62736
C         36.63827        50.72599        -0.03586
C         37.73802        52.82265         0.85457
C         36.55534        52.14000         0.48697
C         37.67808        54.21178         1.12607
C         36.44989        54.89221         1.06944
C         37.66467        57.09735         1.24671
C         36.36819        56.33901         1.51638
C         37.62316        58.55475         0.84799
C         36.37205        59.29247         1.28911
C         37.67988        61.48860         1.08624
C         36.30993        60.82895         1.31246
C         37.72198        62.87669         0.52552
C         36.46851        63.52977         0.07418
C         37.82545        65.54472        -0.66357
C         36.51398        64.86556        -0.31896
C         37.81382        67.03955        -0.43065
C         36.56307        67.75270        -0.55526
C         37.78407        69.89534        -0.50045
C         36.58636        69.16079        -0.62060
C         37.79440        71.30384        -0.59446
C         36.53690        72.03425        -0.57067
C         37.81036        74.15443        -0.40898
C         36.56852        73.49168        -0.43332
C         40.27525        40.07319        -1.06112
C         40.24757        41.44868        -0.71649
C         39.04254        42.16026        -0.60946
C         40.25407        44.19662         0.06357
C         39.01981        43.54124        -0.26331
C         40.22309        45.58202         0.65531
C         38.99688        46.37171         0.28158
C         40.25103        48.47719         0.73673
C         38.99918        47.77112         0.46253
C         40.25915        49.87709         1.00069
C         38.98088        50.62567         1.05540
C         40.19010        52.76785         1.18833
C         39.01179        52.11094         0.99283
C         40.22397        54.24026         1.35883
C         38.90604        54.97680         1.45301
C         40.12127        57.16341         0.99960
C         38.86779        56.44652         1.20023
C         40.15441        58.54651         1.00355
C         38.91195        59.30583         1.08243
C         40.20158        61.34069         0.55987
C         38.91909        60.67156         1.01471
C         40.21231        62.84434         0.60092
C         39.03003        63.51536         0.22538
C         40.26735        65.58407        -0.00756
C         39.05099        64.87984        -0.08778
C         40.28480        67.01883        -0.30805
C         39.01442        67.71250        -0.36100
C         40.18976        69.83596        -1.11958
C         39.10224        69.20669        -0.21355
C         40.26793        71.31714        -0.76285
C         39.03921        72.01459        -0.61955
C         40.27131        74.13529        -0.48882
C         39.03996        73.45249        -0.50682
C         42.75031        35.91716        -1.95991
C         42.70318        37.30401        -1.80210
C         41.49596        37.99515        -1.55706
C         42.74499        40.10152        -1.18505
C         41.48087        39.37641        -1.27281
C         42.70090        41.46007        -0.69679
C         41.50446        42.12789        -0.45859
C         42.69661        44.24054         0.18824
C         41.47893        43.51463        -0.01745
C         42.69407        45.66127         0.25942
C         41.50021        46.35780         0.44042
C         42.72046        48.50403         0.72023
C         41.48190        47.78185         0.62428
C         42.71044        49.90159         1.00382
C         41.46235        50.57235         1.14789
C         42.70887        52.74709         1.09886
C         41.45996        52.02806         1.54566
C         42.66559        54.19293         0.63501
C         41.42746        54.96160         0.99787
C         42.64948        57.16602         1.01074
C         41.38429        56.42295         0.62780
C         42.66934        58.51993         1.21087
C         41.41936        59.27735         1.11017
C         42.63079        61.40108         1.61157
C         41.42819        60.64844         1.08738
C         42.63428        62.90204         1.28656
C         41.41659        63.55728         0.72801
C         42.70158        65.76189         0.55974
C         41.43830        64.93508         0.42767
C         42.74600        66.88820        -0.48819
C         41.46668        67.68827        -0.49300
C         42.74507        69.85778        -0.59536
C         41.55087        69.06965        -1.11562
C         42.73764        71.27114        -0.58086
C         41.48744        71.99803        -0.66055
C         42.72905        74.12662        -0.43994
C         41.49654        73.43565        -0.52382
C         45.15245        33.06677        -1.63529
C         43.97322        33.77044        -1.86993
C         45.22287        35.87528        -1.84597
C         43.98109        35.19036        -1.94203
C         45.27403        37.32643        -2.05156
C         43.94780        38.09209        -1.95529
C         45.22946        40.29806        -1.69751
C         43.94663        39.50026        -1.53637
C         45.23552        41.55340        -0.84205
C         43.97754        42.06169        -0.28952
C         45.23873        44.23845         0.20618
C         43.97015        43.51334         0.22692
C         45.19626        45.67869         0.63002
C         43.98991        46.41351         0.02639
C         45.16686        48.55023         0.61334
C         43.96440        47.84815         0.50461
C         45.16757        49.94964         0.88907
C         43.94478        50.62589         1.07256
C         45.17634        52.82196         0.97351
C         43.91207        52.08243         1.09610
C         45.17199        54.19467         1.00063
C         43.86997        54.94136         1.24113
C         45.14197        57.10924         1.33347
C         43.93122        56.40793         0.74579
C         45.16500        58.58107         1.28077
C         43.93527        59.27711         1.27081
C         45.17345        61.38736         1.23213
C         43.93731        60.68916         1.28020
C         45.22179        62.84317         1.12425
C         43.95567        63.61728         1.08919
C         45.21360        65.52607        -0.05343
C         43.94030        64.92774         0.46209
C         45.18515        67.04603        -0.07728
C         43.99156        67.72065        -0.29081
C         45.18445        69.87683        -0.23563
C         43.95474        69.15422        -0.36402
C         45.18659        71.29917        -0.30057
C         43.95511        71.99542        -0.41579
C         45.18984        74.13878        -0.33331
C         43.95629        73.44032        -0.40392
C         46.35301        33.74308        -1.41786
C         47.60862        35.85480        -1.18121
C         46.41050        35.15936        -1.49845
C         47.69331        37.26931        -1.19263
C         46.61414        38.04782        -1.92160
C         47.62388        40.12606        -1.04627
C         46.49431        39.48119        -1.42168
C         47.67525        41.63151        -1.14018
C         46.40163        42.23051        -0.60917
C         47.68638        44.29327        -0.03852
C         46.42730        43.58229        -0.07593
C         47.67250        45.71798         0.18871
C         46.48349        46.40134         0.35641
C         47.70429        48.56098         0.69156
C         46.45651        47.89414         0.17179
C         47.67935        49.95313         0.93678
C         46.42788        50.68308         0.91913
C         47.68154        52.80424         1.03267
C         46.43137        52.07802         0.94875
C         47.69550        54.21120         1.03409
C         46.43494        54.96909         0.73052
C         47.69630        57.12977         1.29567
C         46.43516        56.36283         1.33067
C         47.67024        58.51769         1.31863
C         46.40659        59.25986         1.29951
C         47.68042        61.42727         1.45527
C         46.39462        60.67117         1.24735
C         47.67660        62.83347         0.90044
C         46.40910        63.52242         0.92999
C         47.67808        65.65654         0.39026
C         46.37924        65.02905         0.81928
C         47.66335        67.05673         0.15019
C         46.41940        67.75801         0.01810
C         47.65272        69.89883        -0.12604
C         46.41815        69.17686        -0.09650
C         47.64417        71.31341        -0.24459
C         46.43091        72.01402        -0.28291
C         47.65276        74.17352        -0.20930
C         46.42433        73.46807        -0.30036
C         48.80723        37.93218        -0.71486
C         50.12151        40.12491        -0.78331
C         48.82938        39.41395        -0.48087
C         50.17354        41.51419        -0.68754
C         48.93016        42.25775        -0.60073
C         50.18598        44.40817        -0.41834
C         48.91136        43.61005        -0.27908
C         50.12633        45.73590         0.29203
C         48.94326        46.43063         0.34553
C         50.13876        48.53131         0.96352
C         48.91382        47.84267         0.71650
C         50.12263        49.92268         1.16680
C         48.90920        50.64394         1.14142
C         50.12403        52.80381         1.26856
C         48.91576        52.09361         1.18322
C         50.13972        54.21468         1.18849
C         48.90728        54.93557         1.12268
C         50.15790        57.04280         1.19468
C         48.93014        56.37645         1.20125
C         50.22434        58.51379         1.51618
C         48.92365        59.25855         1.24541
C         50.18137        61.39244         1.04905
C         48.91812        60.62024         1.14612
C         50.09514        62.69187         0.27224
C         48.84985        63.49088         0.58608
C         50.12198        65.60650         0.18313
C         48.87393        64.92392         0.35453
C         50.12859        67.03916         0.12027
C         48.89481        67.76899         0.06321
C         50.13074        69.90859         0.00216
C         48.89524        69.18682        -0.05517
C         50.16538        71.33219        -0.05643
C         48.93196        72.04363        -0.54952
C         50.10808        74.19160        -0.04847
C         48.90106        73.51404        -0.20510
C         51.40981        42.21971        -0.53112
C         52.65550        44.24789         0.04108
C         51.45723        43.60124        -0.23819
C         52.69158        45.60715         0.60970
C         51.37072        46.35774         0.77524
C         52.62003        48.44283         1.17212
C         51.40589        47.81721         0.94849
C         52.64562        49.88243         1.64327
C         51.43852        50.65802         1.09907
C         52.65893        52.79793         1.21767
C         51.39519        52.08725         1.66274
C         52.63839        54.18011         0.96923
C         51.38127        54.91866         1.05104
C         52.55744        57.04368         0.52281
C         51.35843        56.31626         0.97659
C         52.61145        58.51057         0.65370
C         51.46843        59.19544         0.99141
C         52.66525        61.33207         0.41327
C         51.48629        60.65797         0.98243
C         52.60754        62.75556         0.23037
C         51.39008        63.46747         0.28371
C         52.59792        65.59421         0.03580
C         51.35865        64.88069         0.16620
C         52.59590        67.04028         0.09676
C         51.34995        67.75380         0.14816
C         52.55192        69.91471         0.34913
C         51.34949        69.19007         0.16249
C         52.58061        71.32809         0.38474
C         51.35028        72.03873         0.16050
C         52.54378        74.19474         0.28345
C         51.36600        73.50533         0.10537
C         53.91276        46.41774         0.65614
C         55.11844        48.46056         1.50222
C         53.86803        47.73210         1.05633
C         55.12256        49.94063         1.19961
C         53.90786        50.63728         1.28206
C         55.09924        52.75340         0.86287
C         53.87815        52.05955         1.12090
C         55.08678        54.16624         0.67694
C         53.85627        54.85633         0.68577
C         55.11127        57.04499         0.35968
C         53.84618        56.28695         0.34673
C         55.08673        58.46077         0.24018
C         53.85565        59.18709         0.33621
C         55.04184        61.29115        -0.41387
C         53.83646        60.60268         0.18463
C         55.06929        62.76735        -0.11513
C         53.85009        63.46050         0.03264
C         55.06007        65.58512        -0.30847
C         53.80742        64.88324        -0.04331
C         55.05365        67.10384        -0.14096
C         53.79588        67.74315         0.20264
C         55.10339        69.92914         0.51263
C         53.79157        69.16640         0.56281
C         55.06926        71.39546         0.33408
C         53.82704        72.04199         0.46136
C         55.08954        74.21172         0.43778
C         53.79812        73.51367         0.75883
C         56.32243        50.62323         0.95873
C         57.54460        52.74192         0.56641
C         56.34314        52.03433         0.79469
C         57.57133        54.15671         0.38914
C         56.31479        54.89664         0.47731
C         57.63989        57.01956         0.48102
C         56.31284        56.30299         0.40393
C         57.57826        58.48623         0.11967
C         56.34235        59.18362         0.08331
C         57.56227        61.29330        -0.21920
C         56.34882        60.58628        -0.13399
C         57.55843        62.74873        -0.25050
C         56.31578        63.46219        -0.15831
C         57.54926        65.60707        -0.14596
C         56.33563        64.87880        -0.16613
C         57.55337        67.05271        -0.03251
C         56.33552        67.78241         0.08766
C         57.53476        69.89926         0.08319
C         56.33389        69.17368         0.23183
C         57.48867        71.32291        -0.10809
C         56.29049        72.10107         0.07926
C         57.52379        74.34459         0.35325
C         56.29267        73.56486         0.20372
C         58.74868        54.83036         0.06899
C         60.00505        57.02627        -0.29319
C         58.69757        56.27841        -0.34453
C         60.03396        58.38104        -0.21444
C         58.79482        59.15276        -0.09115
C         60.04570        61.27730        -0.31068
C         58.81586        60.58174        -0.21389
C         60.04625        62.75324        -0.62616
C         58.75885        63.47289        -0.30917
C         60.02430        65.63029        -0.20120
C         58.77830        64.89273        -0.21722
C         60.02338        67.04324        -0.06236
C         58.77618        67.76023         0.02665
C         59.99367        69.92263        -0.01437
C         58.76786        69.19306         0.03066
C         59.96324        71.27898        -0.35137
C         58.70171        71.86371        -0.58382
C         60.07927        74.36329         0.11457
C         58.74575        74.00585        -0.20936
C         61.36665        59.08800        -0.37801
C         62.50550        61.29219        -0.31247
C         61.30677        60.60087        -0.30929
C         62.56629        62.73740        -0.04300
C         61.25008        63.47801        -0.06398
C         62.48510        65.65107        -0.20890
C         61.26814        64.94991        -0.19872
C         62.46722        67.07346        -0.17816
C         61.25646        67.74824        -0.02711
C         62.50513        69.98680         0.27349
C         61.22060        69.18297         0.45133
C         62.46261        71.41910        -0.15068
C         61.20379        72.09973        -0.68473
C         62.47028        74.20588        -0.28289
C         61.22041        73.58796        -0.25631
C         63.78338        63.53688        -0.19843
C         64.97153        65.68464        -0.29874
C         63.75905        64.92692        -0.23399
C         65.00002        67.08608        -0.35778
C         63.71002        67.87174        -0.49269
C         64.99370        69.97311        -0.31709
C         63.82096        69.20491         0.26821
C         64.95198        71.37235        -0.54901
C         63.73345        72.09927        -0.48515
C         64.91071        74.20299        -0.82070
C         63.70804        73.51487        -0.56086
C         66.19540        67.81236        -0.40742
C         67.38180        69.94861        -0.85148
C         66.20264        69.24828        -0.51846
C         67.38206        71.35759        -1.00782
C         66.15612        72.07738        -0.86800
C         67.34224        74.17614        -1.31233
C         66.12842        73.49930        -1.01288
C         68.56772        72.07905        -1.31676
C         68.53304        73.46539        -1.46476
O         45.67886        56.52590         2.57798
O         23.33892        71.75058         1.44149
O         62.48611        71.06600         1.28745
O         51.96303        45.63407         1.91582
O         37.78271        62.63911         2.00688
O         26.45437        71.74075         1.52680
O         44.59104        37.81586        -3.26872
O         54.50706        69.51135         1.80560
O         32.26971        64.96187        -2.39341
O         43.19389        63.65935         2.41681
O         58.67305        73.06596        -1.27730
O         37.98245        50.16637         2.04361
O         55.01033        66.47023        -1.48042
O         50.99929        61.34340         2.25259
O         44.00132        42.35759         1.14109
O         52.98496        56.59849        -0.81940
O         39.59159        54.63311         2.69424
O         35.62835        58.79223         2.42541
O         31.27420        69.02450         1.35274
O         61.76312        63.03502         1.20663
O         60.20784        62.85628        -2.08688
H         59.41899        62.44713        -2.50261
O         40.12956        45.38032         2.12194
H         39.28544        44.91145         2.29542
O         46.09218        65.54254         2.15234
H         46.76696        65.18668         2.76800
O         51.36175        52.10261         3.11098
H         51.92477        51.35935         3.44352
O         37.94723        65.37007        -2.11850
H         37.20755        65.85996        -2.53758
O         55.13318        48.34930         2.95122
H         55.02508        47.40230         3.18136
O         49.90900        62.24362        -1.11829
H         49.77015        63.04013        -1.67383
O         54.87249        61.18856        -1.87936
H         54.01895        61.61603        -2.10572
O         27.90708        71.24569        -1.79944
H         28.68573        70.78133        -2.17365
O         47.14080        38.17110        -3.27804
H         46.37228        38.14950        -3.89248
O         41.51707        52.04757         3.01195
H         41.37837        52.97524         3.30425
O         33.75260        72.19118        -2.19032
H         34.37950        72.85540        -2.54984
O         42.69587        66.39818         1.87102
H         42.84306        65.67870         2.52932
O         39.49991        69.49933         1.15359
H         38.85253        69.08046         1.75777
O         50.36211        58.59665         2.98163
H         50.55035        59.54528         3.18402
O         35.41686        69.94587        -2.53099
H         34.64801        70.49559        -2.81850
O         43.59240        54.93666         2.65675
H         44.35366        55.37042         3.11328
O         33.70729        54.87584         2.43644
H         34.50718        55.27508         2.86674
O         39.68803        69.77543        -2.48024
H         38.78373        70.15940        -2.49463
O         50.23111        44.77506        -1.84920
H         49.31937        45.00253        -2.13204
O         41.37884        56.45896        -0.87931
H         42.30552        56.68600        -1.15495
O         49.04307        71.99678        -2.02247
H         48.26545        72.47198        -2.38580
O         40.21978        61.08079        -0.90251
H         40.23178        60.10746        -1.03168
O         31.65788        73.54949         2.10535
H         31.00082        72.87454         2.42121
O         48.65980        39.56695         0.99045
H         47.83959        39.09126         1.24318
O         42.78649        54.10641        -0.81683
H         42.16157        54.76355        -1.20696
O         45.26796        40.72343        -3.10276
H         45.14611        39.90593        -3.63930
O         42.51055        61.28483         3.06071
H         42.94734        62.08251         3.44370
O         44.21309        46.43681        -1.42373
H         43.42660        46.84760        -1.84164
O         61.02701        69.03865         1.89553
H         61.26919        69.90607         2.29425
O         37.49500        58.54427        -0.62471
H         38.24623        58.02692        -0.98742
O         46.49402        48.08088        -1.29352
H         45.74712        47.53827        -1.65375
O         64.14298        68.89626         1.64038
H         63.94261        69.69843         2.17048
O         58.29152        56.27968        -1.74856
H         57.44352        55.79049        -1.81449
O         42.86500        66.25294        -1.80059
H         42.64770        66.96574        -2.45363
O         45.42055        65.05311        -1.41392
H         44.62105        65.34245        -1.92125
O         61.32755        72.07943        -2.12917
H         60.54673        72.55522        -2.48863
O         30.42107        60.97810        -2.30004
H         30.30588        60.01428        -2.44096
O         23.17603        67.25248        -0.99218
H         23.50759        67.48506        -1.88322
O         63.57567        68.24873        -1.89660
H         63.57864        67.42890        -2.43380
O         36.15027        56.26786         2.95785
H         35.99763        57.20028         3.25716
O         52.61592        49.79057         3.10078
H         53.45642        49.33629         3.36355
O         25.18889        73.52487        -1.94911
H         25.97517        73.56273        -2.53196
O         47.75753        61.64740         2.91629
H         47.74718        60.76630         3.34888
O         41.94347        68.78368        -2.50228
H         41.16257        69.00419        -3.06682
O         53.71904        73.59018         2.25090
H         54.40518        72.98540         2.60792
O         24.80023        74.15110         1.60985
H         24.30578        73.63032         2.27947
O         44.97971        45.70869         2.07508
H         45.61911        45.09604         2.49525
O         51.71263        50.78057        -0.32905
H         50.93110        51.19007        -0.75642
O         27.66827        65.79803        -2.38895
H         26.78258        66.19821        -2.52160
O         33.09614        56.95371        -1.46016
H         32.32839        57.36637        -1.90996
O         47.73305        41.94228        -2.57378
H         46.91956        41.55511        -2.98906
O         44.07954        56.44867        -0.70407
H         44.90855        55.95048        -0.94694
O         32.72575        67.42795        -2.69051
H         32.35749        66.62983        -3.14557
O         58.08335        56.94768         1.86875
H         57.42316        57.41481         2.42183
O         37.05611        50.84011        -1.43862
H         36.32282        51.26361        -1.93294
O         30.24808        71.28796         2.12555
H         30.73848        70.52203         2.50777
O         35.89137        61.16641         2.65816
H         36.30112        62.03843         2.87339
O         62.31297        58.59022         0.58068
H         61.98536        58.81289         1.47616
O         46.46895        55.20280        -0.74073
H         46.52685        54.32365        -1.17408
H         23.09366        75.40428        -0.04559
H         25.62040        75.17744        -0.71450
H         28.13375        75.10121        -0.77759
H         30.48144        75.17231         0.05608
H         33.06472        75.17893         0.58886
H         35.37982        75.26432        -0.07196
H         37.83007        75.24968        -0.30581
H         40.27992        75.23246        -0.40888
H         42.72308        75.22542        -0.38462
H         45.17603        75.23893        -0.31721
H         47.62593        75.26830        -0.09450
H         50.09854        75.28741         0.06279
H         52.53809        75.29518         0.25181
H         55.10985        75.29749         0.62056
H         57.47953        75.19947         1.04490
H         60.26141        75.29967         0.66483
H         62.52404        75.29230        -0.11269
H         64.90835        75.30142        -0.87926
H         67.33516        75.26998        -1.42263
H         22.14622        69.42792        -0.46472
H         21.07649        71.71451        -1.01779
H         21.12953        74.18807        -0.86357
H         24.46181        65.06687        -0.21791
H         23.70658        67.42287         0.98127
H         26.92745        60.81359        -0.14353
H         25.73174        62.90763        -0.20108
H         29.37423        56.51656         0.13852
H         28.14378        58.63895         0.00707
H         31.94933        52.30191        -0.26094
H         30.60212        54.37099         0.15126
H         34.40902        48.04258        -0.25275
H         33.16173        50.18627        -0.22516
H         36.87912        43.76762        -0.54295
H         35.67434        45.91012        -0.51642
H         39.32261        39.53520        -1.17850
H         38.09264        41.65001        -0.82799
H         41.80926        35.34731        -1.93361
H         40.54920        37.43483        -1.55775
H         45.12990        31.96918        -1.58257
H         43.01995        33.23386        -1.97716
H         47.26936        33.18296        -1.18422
H         48.47298        35.27537        -0.82261
H         49.61887        37.34298        -0.25785
H         51.05214        39.54174        -0.85175
H         52.34521        41.63932        -0.50121
H         53.59890        43.68055        -0.00439
H         54.87875        45.94044         0.42682
H         56.03877        47.96412         1.08621
H         57.26816        50.06262         0.91404
H         58.49017        52.18340         0.49962
H         59.67802        54.25834        -0.07794
H         60.94225        56.46864        -0.44424
H         61.77928        58.81066        -1.38744
H         63.44724        60.72798        -0.39103
H         64.74352        63.01208        -0.31898
H         65.92708        65.13876        -0.25812
H         67.15646        67.27587        -0.42696
H         68.31939        69.39099        -0.99503
H         69.51500        71.53390        -1.43532
H         69.45980        74.00757        -1.70051
