         294
 CSIRO Nanostructure Databank - Neutral Graphene Oxide Data Set
C          1.30281         2.36229        -0.93250
C          1.34349         3.72710        -1.45635
C          2.45816         1.65385        -0.89692
C          2.53497         4.33755        -1.18857
C          0.98754         6.43101         0.22412
C          1.06733         7.72980        -0.08903
C          2.16294         5.68690         0.74341
C          2.36943         8.48533        -0.11244
C          1.08858        10.76012        -0.02278
C          1.05952        12.07766         0.24173
C          2.23999         9.91819         0.49050
C          2.22228        12.80989         0.80885
C          1.04311        15.14120         0.37665
C          1.09068        16.37032        -0.15994
C          2.25841        14.33209         0.66621
C          2.36922        16.89026        -0.77848
C          2.45725        18.40161        -0.88658
C          3.78255         2.27496        -1.38475
C          3.80771         3.70531        -0.84687
C          4.99559         1.47217        -1.01570
C          4.66326         4.04747         0.37408
C          3.53006         6.32402         0.58329
C          3.53945         7.73432         0.50503
C          4.71049         5.55645         0.64265
C          4.70347         8.52731         1.05704
C          3.53809        10.71043         0.18520
C          3.55783        12.04961         0.94078
C          4.82045         9.93578         0.47050
C          4.76984        12.83721         0.52212
C          3.56323        14.96011         0.42735
C          3.58479        16.42365         0.06762
C          4.77167        14.23833         0.49036
C          4.88932        16.89687        -0.58711
C          3.63411        19.06934        -0.81697
C          4.91501        18.41053        -0.60914
C          6.10687         2.02190        -0.39905
C          6.04453         3.36470         0.24422
C          7.36118         1.36703        -0.48164
C          7.33415         4.12899         0.36164
C          6.03157         6.18678         1.06502
C          6.02653         7.73931         1.08860
C          7.19977         5.63953         0.17390
C          7.30073         8.47753         0.84546
C          6.00004        10.61507         0.36122
C          6.00099        12.11348         0.03061
C          7.28174         9.93882         0.55043
C          7.27113        12.83389         0.47899
C          6.05622        14.95527         0.39964
C          6.10137        16.27317         0.04157
C          7.28281        14.19195         0.62279
C          7.41678        16.91826        -0.31759
C          6.10116        19.09090        -0.54336
C          7.38023        18.43014        -0.38943
C          8.60357         2.05905        -0.31437
C          8.59832         3.44139         0.04998
C          9.81514         1.41040        -0.61268
C          9.85428         4.15471         0.27098
C          8.51457         6.37986         0.30606
C          8.54541         7.71177         0.53283
C          9.83378         5.65823         0.30140
C          9.90422         8.36434         0.75679
C          8.46943        10.60911         0.61019
C          8.54175        12.07316         0.16246
C          9.60904         9.83211         1.21616
C          9.81770        12.77534         0.68698
C          8.55757        14.95387         0.98570
C          8.54734        16.42687         0.55858
C          9.78846        14.27018         0.31443
C          9.85282        17.11943         0.39695
C          8.56846        19.11293        -0.42171
C          9.86191        18.45226        -0.27909
C         11.10222         2.17126        -0.77825
C         11.16884         3.40686         0.13168
C         12.33629         1.29535        -0.48061
C         12.34836         4.26028        -0.31163
C         10.99076         6.39375        -0.34540
C         10.91660         7.89291        -0.39433
C         12.29706         5.69085        -0.54058
C         12.14735         8.68341        -0.97624
C         11.14929        10.87239        -0.36672
C         11.10454        12.08537         0.26706
C         12.32835         9.95395        -0.15953
C         12.37614        12.64497         0.89596
C         11.12002        14.98083         0.58189
C         11.12196        16.34002         0.51205
C         12.43010        14.18045         0.45551
C         12.36508        17.20122         0.50131
C         11.03518        19.05647        -0.60376
C         12.33646        18.29077        -0.60355
C         13.58980         2.11446        -0.20038
C         13.53704         3.56391        -0.36074
C         14.76645         1.48819         0.08843
C         14.79551         4.26150        -0.67609
C         13.45306         6.41477        -0.80834
C         13.46839         7.87809        -1.05889
C         14.76134         5.75047        -0.95482
C         14.80338         8.62363        -1.10659
C         13.59639        10.72970        -0.32041
C         13.61969        11.92039         0.35070
C         14.81494        10.12959        -0.89978
C         14.91739        12.38970         0.73745
C         13.61357        15.01625         0.97378
C         13.64995        16.40125         0.41511
C         14.79174        14.50952         1.39615
C         14.91553        17.19481         0.30789
C         13.57947        19.15260        -0.47641
C         14.80053        18.63435        -0.14025
C         15.99932         2.24894         0.36874
C         16.03283         3.70375        -0.06988
C         17.29833         1.59817         0.55380
C         17.32098         4.31720        -0.42771
C         16.04013         6.50466        -0.82117
C         16.08265         7.87681        -0.85489
C         17.29016         5.70065        -0.97886
C         17.35646         8.60602        -0.86332
C         16.14217        10.87143        -0.76614
C         16.12497        12.04359         0.20313
C         17.38058        10.02408        -0.95291
C         17.31536        13.00131         0.45850
C         16.09409        15.21548         1.43671
C         16.13124        16.65133         1.03834
C         17.35590        14.32922         1.41760
C         17.53615        17.23529         1.00312
C         16.03170        19.36164        -0.40915
C         17.15242        18.68622        -0.91106
C         18.46496         2.31491         0.46440
C         18.48925         3.64937        -0.14940
C         19.68680         1.71991         1.02232
C         19.76522         4.13879        -0.77987
C         18.60084         6.42887        -1.16057
C         18.59944         7.90418        -0.94178
C         19.93599         5.64603        -1.14048
C         19.82001         8.60900        -0.77956
C         18.63214        10.64156        -1.22071
C         18.53140        12.20112         0.86617
C         19.84589        10.01551        -0.83297
C         19.76241        12.73691         0.66637
C         18.57659        15.03982         0.77114
C         18.59504        16.36207         0.40268
C         19.88005        14.25694         0.70659
C         19.69873        16.97445        -0.35678
C         18.47856        19.17693        -0.82819
C         19.64933        18.34122        -0.81662
C         20.67609         2.43079         1.60932
C         20.70003         3.90283         1.58407
C         21.77340         4.56507         1.07934
C         21.00051         6.43523        -0.38925
C         21.14856         7.86820        -0.88792
C         21.76416         5.95738         0.61758
C         22.28698         8.63727        -0.27174
C         21.10769        10.84085        -0.58298
C         21.04205        11.91911         0.61296
C         22.29507         9.97087        -0.24499
C         22.23614        12.83737         0.41295
C         20.82042        14.70087        -0.42009
C         20.85298        16.20357        -0.63952
C         22.15873        14.06977        -0.10729
C         21.96356        16.79664        -1.24930
C         20.84548        18.93224        -1.30428
C         21.98353        18.17226        -1.51925
O         20.54022         3.32105        -1.24698
O         12.38309         9.51424         1.23410
O         14.93090        13.21127         1.86974
O          6.83408         8.19965         2.23304
O         15.35074        10.96770        -1.99062
O          8.51044        12.11429        -1.28106
O          9.96452         4.94243         1.55175
O         15.99087        16.27248         2.46349
O          6.72482         3.46611         1.53035
O          2.04274        13.64156         1.98444
O         17.84473         5.94529        -2.32808
O          1.99362         4.74805         1.51366
O         14.15743         8.17304        -2.32624
O          3.63519         4.84175        -1.86565
O         15.83188         3.37275         1.33594
O         14.87481         4.74497        -2.03858
O         14.43932        16.36962        -0.83384
O          9.01838        17.28227         1.64219
O         17.81640        18.24025         1.63310
O         10.36355         7.10944        -1.48614
O         11.47956         2.88015         1.44467
H         11.24399         3.57858         2.09834
O         12.66190        14.06203        -0.96909
H         12.61264        14.95045        -1.38187
O         18.68522        11.79497        -1.91390
H         17.77562        12.08366        -2.15011
O          6.22577         5.75294         2.41930
H          6.75612         6.44831         2.87655
O          3.50798        17.10898         1.34905
H          2.67400        16.83997         1.79037
O          9.79574        12.65453         2.13391
H          9.24611        13.37502         2.53127
O          3.74999         2.31166        -2.83292
H          3.72923         3.25819        -3.10293
O         18.34432        10.96446         1.40901
H         17.38440        10.79196         1.50321
O          4.36413         8.73136         2.47169
H          5.20988         8.95686         2.92894
O         17.49897        13.63450        -0.84449
H         18.46398        13.70410        -1.08514
O         20.25914        14.14609        -1.64843
H         20.65500        13.24227        -1.79148
O         20.50908        14.57034         1.98354
H         19.85482        14.34169         2.68176
O          9.58025        14.44836        -1.11036
H          9.22336        13.57230        -1.47094
O         12.43372        17.88529         1.78085
H         11.53735        18.22087         1.99565
O          2.70161         8.62351        -1.53772
H          2.85304         7.72334        -1.89883
O         11.84728         9.04831        -2.32009
H         11.50319         8.25005        -2.77577
O         16.94860        17.44237        -1.44105
H         17.78498        17.08995        -1.80943
O          2.36482        16.32407        -2.10383
H          3.26509        16.44686        -2.49310
O          3.51030        11.10843        -1.19652
H          3.48850        10.29779        -1.75495
O         12.39855        17.66047        -1.90977
H         13.27749        17.21162        -1.97641
O         19.57123         4.57990         1.97606
H         18.92905         3.95244         2.36434
O         21.48215         7.89916        -2.30720
H         21.14025         7.06562        -2.72142
O          4.95029        16.45163        -1.97635
H          5.90889        16.44236        -2.23306
O         12.54411         0.45907        -1.62737
H         13.41157         0.01319        -1.54151
O          8.63659        14.94895         2.42975
H          8.95837        15.84892         2.69470
O          1.98785         9.79761         1.89464
H          2.81870         9.51177         2.35444
O         20.35807         5.56253        -2.53298
H         19.54272         5.38970        -3.05992
O         17.67512        13.93550         2.75618
H         17.22733        14.55779         3.36996
O          3.79504        11.78734         2.34634
H          3.29910        12.47499         2.85131
O         10.21147        10.33975        -1.16754
H          9.53826        11.04877        -1.47962
O         10.46307         7.74188         1.92850
H         10.67400         8.47788         2.55862
O         11.15753         2.62219        -2.14965
H         11.54813         1.88241        -2.66877
O          5.93081        12.25594        -1.41245
H          6.88680        12.18846        -1.71952
O         21.21628        11.15442         1.81766
H         21.07680        11.75552         2.57771
O         10.08953        10.17264         2.28710
H         12.31316        10.31420         1.81059
O          4.06274         3.36015         1.48881
H          4.62627         3.54201         2.27288
O          7.72598        16.44395        -1.67474
H          8.36139        15.67387        -1.60043
O          6.74692         5.83810        -1.19718
H          7.52512         5.87141        -1.79332
O         21.40768        11.60475        -1.77945
H         21.45825        10.97355        -2.52861
O         12.39819        12.48096         2.31789
H         11.45157        12.50717         2.62233
H          0.34174         1.89034        -0.67806
H          0.49444         4.19117        -1.97427
H          2.46400         0.60929        -0.55313
H          0.01618         5.91506         0.23376
H          0.16532         8.27269        -0.41157
H          0.22023        10.28789        -0.50596
H          0.18331        12.67643        -0.05018
H          0.09161        14.74126         0.75765
H          0.16290        16.94768        -0.29376
H          1.52734        18.95880        -1.08047
H          5.09377         0.48503        -1.49387
H          3.64181        20.16579        -0.92717
H          7.38972         0.34107        -0.87851
H          6.09974        20.19093        -0.61385
H          9.78797         0.35570        -0.92678
H          8.56632        20.20079        -0.59472
H         12.11982         0.64633         0.41434
H         11.02561        20.05873        -1.06033
H         14.81953         0.38871         0.12755
H         13.54030        20.16697        -0.90553
H         17.32431         0.55270         0.89754
H         16.10629        20.43157        -0.17059
H         19.72830         0.61976         1.05345
H         18.62254        20.26175        -0.71320
H         21.56687         1.90348         1.98428
H         22.67691         3.98036         0.84753
H         22.53998         6.61480         1.04811
H         23.21888         8.09593        -0.04854
H         23.21092        10.49001         0.07462
H         23.22435        12.43530         0.68463
H         23.07981        14.65917        -0.23162
H         22.84425        16.19126        -1.50197
H         20.83157        19.99484        -1.58559
H         22.88488        18.63570        -1.94290
