         598
 CSIRO Nanostructure Databank - Neutral Graphene Oxide Data Set
C         24.67236        70.04638         4.78035
C         24.47348        71.42218         4.49516
C         23.26934        72.09525         4.84463
C         24.10091        74.15574         3.86170
C         23.10838        73.44508         4.54038
C         27.04450        65.77952         4.15728
C         27.01935        67.18608         4.07688
C         25.94953        67.93166         4.57700
C         26.87930        70.05404         3.72339
C         25.83897        69.34483         4.36981
C         26.77153        71.49453         3.57659
C         25.50800        72.16620         3.85629
C         26.27931        74.19726         2.66956
C         25.31685        73.52484         3.48799
C         29.04946        61.42094         2.97022
C         28.98947        62.82962         2.85022
C         28.06360        63.61610         3.59006
C         28.95903        65.69594         2.59394
C         28.03270        65.01776         3.48575
C         29.01208        67.10601         2.50217
C         28.16577        67.87416         3.43111
C         28.89798        69.98985         2.15126
C         28.10744        69.38909         3.25946
C         28.70993        71.38423         1.84984
C         27.78634        72.21104         2.64262
C         28.29657        74.17158         1.24449
C         27.40894        73.55511         2.14977
C         30.84742        57.07698         1.40654
C         30.87004        58.49254         1.42845
C         30.00182        59.23154         2.26492
C         30.90606        61.32337         1.36487
C         29.97203        60.64690         2.22182
C         30.82102        62.72480         1.21248
C         29.86329        63.49399         1.92564
C         30.59414        65.58426         0.78252
C         29.81355        64.92099         1.77254
C         30.66234        66.98414         0.67243
C         29.85451        67.77388         1.56682
C         30.49577        69.81668         0.19829
C         29.77597        69.20393         1.39955
C         30.60025        71.32432         0.28789
C         29.53418        72.04188         0.92030
C         30.45576        74.15233         0.06677
C         29.42073        73.47719         0.73403
C         32.83789        52.69340         0.53142
C         32.65802        54.05756         0.01913
C         31.72442        54.92344         0.73031
C         32.56576        56.96528        -0.42835
C         31.68124        56.29659         0.56391
C         32.61076        58.46035        -0.39807
C         31.79199        59.18954         0.57309
C         32.89911        61.28172        -0.13835
C         31.85987        60.58733         0.59019
C         32.76073        62.70105        -0.29972
C         31.67745        63.36303         0.26403
C         32.04977        65.32589        -1.30600
C         31.30677        64.71536        -0.16211
C         32.07157        66.81573        -1.31943
C         31.51801        67.61201        -0.35255
C         32.75623        69.92611        -1.00899
C         31.83665        69.10368        -0.08722
C         32.79052        71.30512        -0.85633
C         31.65804        72.01860        -0.28355
C         32.74997        74.18774        -0.77786
C         31.62309        73.46907        -0.34741
C         35.31239        48.44597         0.43874
C         35.24379        49.85940         0.39126
C         34.03356        50.55573         0.55347
C         35.12003        52.54803        -0.45413
C         33.95608        51.94217         0.25225
C         35.04788        53.93617        -1.00134
C         33.76746        54.70608        -0.83660
C         35.00559        56.96449        -1.35402
C         33.74825        56.20751        -1.03709
C         35.02118        58.34237        -1.36512
C         33.83903        59.16296        -0.99438
C         35.15403        61.31558        -1.17010
C         33.98580        60.60453        -0.72459
C         35.07064        62.81648        -1.21767
C         33.67577        63.39171        -1.19371
C         35.22730        65.76630        -2.31631
C         33.26725        64.57868        -1.73680
C         35.16709        67.21749        -2.17040
C         33.98822        67.91462        -2.07422
C         35.21921        69.96034        -1.32247
C         33.90777        69.39779        -1.87378
C         35.21191        71.45870        -1.40946
C         33.98974        72.09298        -1.18591
C         35.17754        74.25353        -1.16695
C         33.97218        73.53072        -1.08086
C         37.83126        44.27081        -0.04549
C         37.78338        45.67697        -0.09770
C         36.59184        46.34681         0.18222
C         37.75319        48.52692         0.22363
C         36.52845        47.77083         0.24423
C         37.69465        49.92759         0.35722
C         36.46990        50.61439         0.23406
C         37.62262        52.72636        -0.40471
C         36.45520        51.98736        -0.15114
C         37.63020        54.04625        -0.99448
C         36.31598        54.67659        -1.36262
C         37.56513        56.87577        -1.86329
C         36.24005        56.16269        -1.67481
C         37.53432        58.38232        -1.91222
C         36.24223        59.12843        -1.72866
C         37.56383        61.28667        -1.81966
C         36.30409        60.61298        -1.52500
C         37.60740        62.78275        -1.68061
C         36.31792        63.58083        -1.58244
C         37.64436        65.70162        -2.21363
C         36.34242        64.99882        -2.08025
C         37.65919        67.19908        -2.29572
C         36.41402        67.96066        -2.08471
C         37.66465        70.10009        -2.29508
C         36.44379        69.30758        -1.89371
C         37.67465        71.53338        -1.81458
C         36.43652        72.17847        -1.53308
C         37.65635        74.29171        -1.29068
C         36.42041        73.60222        -1.34703
C         40.31983        40.08197         0.56879
C         40.30301        41.45947         0.30878
C         39.07093        42.16188         0.12837
C         40.30900        44.24903        -0.36150
C         39.03270        43.53240        -0.12231
C         40.30596        45.75317        -0.50939
C         38.97303        46.49725        -0.58464
C         40.21356        48.54654         0.22154
C         39.02258        47.87159         0.04371
C         40.20313        49.95887         0.77410
C         38.91121        50.71290         0.54441
C         40.17372        52.80112        -0.28743
C         38.90043        52.16275         0.07587
C         40.12749        54.11183        -0.81774
C         38.84407        54.73212        -1.13875
C         40.14090        56.88416        -1.58655
C         38.87063        56.12270        -1.67052
C         40.10546        58.37357        -1.65506
C         38.81217        59.13288        -1.69648
C         40.02219        61.29212        -2.35232
C         38.75854        60.60068        -1.95543
C         40.07163        62.77950        -2.47061
C         38.89340        63.51787        -1.91625
C         40.13423        65.65466        -2.01309
C         38.92503        64.99390        -2.02338
C         40.16213        67.11841        -1.73201
C         38.88500        67.90337        -1.82878
C         40.14274        70.01824        -1.93277
C         38.94023        69.35996        -1.96481
C         40.12382        71.47746        -2.06387
C         38.89020        72.24167        -1.85121
C         40.09139        74.40918        -1.20169
C         38.89030        73.65664        -1.50356
C         42.69333        35.85000         1.52603
C         42.70152        37.25881         1.30640
C         41.52529        37.98580         1.13751
C         42.73758        40.12829         0.93785
C         41.52488        39.40026         0.87665
C         42.75724        41.51691         0.65080
C         41.54503        42.19513         0.31134
C         42.76968        44.31645         0.00054
C         41.56312        43.58338         0.03295
C         42.76750        45.77503        -0.06916
C         41.54091        46.48114        -0.14067
C         42.70091        48.57327         0.43069
C         41.49834        47.87196         0.13804
C         42.65688        50.03680         0.65222
C         41.40950        50.74917         0.33935
C         42.68438        52.76292        -0.28265
C         41.41222        52.09147        -0.03501
C         42.64313        54.09937        -0.90521
C         41.34818        54.81950        -1.03166
C         42.60167        56.99355        -1.24610
C         41.33494        56.20825        -1.36923
C         42.65640        58.35512        -1.85771
C         41.35509        59.08118        -2.09703
C         42.59891        61.35322        -2.08764
C         41.34555        60.56390        -2.34794
C         42.60698        62.73456        -2.10798
C         41.41075        63.51584        -2.65064
C         42.59436        65.62940        -2.13162
C         41.38825        64.95347        -2.15692
C         42.65131        67.09761        -1.89294
C         41.40488        67.88147        -1.86944
C         42.64894        69.97514        -2.23156
C         41.40550        69.26970        -1.96515
C         42.60211        71.41224        -2.48174
C         41.29730        72.06404        -2.46659
C         42.62384        74.38070        -1.24597
C         41.33280        74.11564        -1.75636
C         45.11579        33.12852         2.30919
C         43.90497        33.77315         2.03071
C         45.17046        35.75967         1.18756
C         43.88181        35.12751         1.62330
C         45.16468        37.25351         1.23235
C         43.99038        37.94712         1.27526
C         45.25894        40.12515         1.17622
C         43.95599        39.44320         1.50528
C         45.23169        41.60686         1.07102
C         43.97664        42.26950         0.65978
C         45.25476        44.29136        -0.05029
C         43.98574        43.60949         0.24832
C         45.25837        45.85806        -0.12288
C         43.97154        46.51975         0.10914
C         45.20824        48.65867         0.50321
C         43.95119        47.91337         0.36081
C         45.19629        50.03291         0.58948
C         43.94068        50.81325         0.62176
C         45.16765        52.89094        -0.08352
C         43.91241        52.19090         0.06331
C         45.20766        54.22375        -0.48333
C         43.96383        54.85566        -0.96445
C         45.20940        57.08126        -1.09450
C         43.91761        56.34672        -0.95490
C         45.19060        58.45918        -1.29878
C         43.93759        59.11933        -1.77722
C         45.11452        61.35566        -1.42542
C         43.82352        60.60991        -1.64472
C         45.10084        62.84415        -1.60012
C         43.82843        63.51435        -1.96651
C         45.10264        65.57043        -2.68730
C         43.83898        64.89095        -2.16401
C         45.12437        67.11107        -2.63001
C         43.92617        67.84852        -2.12925
C         45.10393        70.07012        -2.17994
C         43.88777        69.32811        -2.28380
C         45.09234        71.43112        -1.82071
C         43.90085        72.25747        -2.09464
C         44.97307        74.11115        -0.87414
C         43.80445        73.61612        -1.47341
C         46.33100        33.81359         2.25282
C         47.59538        35.87447         1.87230
C         46.40273        35.15994         1.81011
C         47.70406        37.25975         1.52502
C         46.47714        37.94662         0.94491
C         47.73168        40.13858         1.25621
C         46.42717        39.43032         1.22409
C         47.75523        41.46641         0.57217
C         46.53930        42.30751         0.74328
C         47.75296        44.35302        -0.15158
C         46.51339        43.62058         0.12670
C         47.71140        45.80291         0.18198
C         46.52955        46.52196         0.22790
C         47.67613        48.63398         0.76118
C         46.49889        47.94657         0.54085
C         47.70744        50.09902         1.15010
C         46.40991        50.82765         0.85957
C         47.71065        52.96955         0.22439
C         46.41348        52.28148         0.45727
C         47.67352        54.30640        -0.16527
C         46.43515        54.98273        -0.49434
C         47.66950        57.09700        -1.01297
C         46.43626        56.36227        -0.85938
C         47.64010        58.47669        -1.23478
C         46.41576        59.21937        -1.31737
C         47.61647        61.37583        -1.71624
C         46.40759        60.62819        -1.47567
C         47.62660        62.73747        -1.95395
C         46.40818        63.55010        -1.82594
C         47.61592        65.65689        -2.28065
C         46.42006        64.96456        -2.26365
C         47.64832        67.11808        -2.27761
C         46.41151        67.88086        -2.55778
C         47.53055        69.91248        -1.48265
C         46.45460        69.41410        -2.41485
C         47.44255        71.27677        -1.01292
C         46.26250        72.02801        -1.23003
C         47.32927        73.99988        -0.20650
C         46.19968        73.39611        -0.78578
C         48.91269        37.91849         1.57290
C         50.27037        40.06056         1.00143
C         49.01520        39.37688         1.36227
C         50.31431        41.40825         0.64062
C         49.06104        42.10742         0.22803
C         50.29181        44.32073         0.36788
C         49.08245        43.59213        -0.01847
C         50.25928        45.72023         0.51201
C         48.95623        46.40350         0.68187
C         50.22830        48.61722         0.90452
C         48.93927        47.90241         0.98232
C         50.19515        50.10821         0.93506
C         48.93911        50.84100         0.65520
C         50.23368        52.88561         0.14991
C         48.96052        52.21775         0.40349
C         50.25339        54.34837        -0.09109
C         48.92854        55.09089        -0.21151
C         50.16088        57.00376        -1.19735
C         48.95169        56.41528        -0.85612
C         50.13160        58.40001        -1.69290
C         48.92578        59.20590        -1.31493
C         50.16802        61.34646        -2.05991
C         48.91643        60.66567        -1.62302
C         50.14355        62.73768        -2.17975
C         48.85057        63.44825        -2.47859
C         50.05238        65.59075        -1.89765
C         48.87271        64.92577        -2.13234
C         50.02840        67.05331        -1.67151
C         48.74124        67.77670        -1.75230
C         49.73934        69.69672        -0.42022
C         48.66448        69.15239        -1.29074
C         49.75503        71.14432        -0.14092
C         48.57569        71.89024        -0.38984
C         49.67567        73.87219         0.56414
C         48.53083        73.27744        -0.01304
C         51.51052        42.16428         0.65116
C         52.70592        44.32622         0.69322
C         51.51451        43.58854         0.56416
C         52.71617        45.74780         0.63250
C         51.45151        46.46086         0.64695
C         52.67612        48.61507         0.45846
C         51.41010        47.90080         0.76370
C         52.77145        50.08086         0.73038
C         51.48975        50.85639         0.78390
C         52.69532        52.81188        -0.21927
C         51.45709        52.21798         0.22339
C         52.61976        54.12586        -0.88140
C         51.43667        54.96326        -0.70831
C         52.67661        56.96343        -1.48567
C         51.43411        56.29608        -1.15029
C         52.72215        58.34639        -2.13035
C         51.39716        59.12711        -2.05122
C         52.62530        61.33823        -1.84458
C         51.37979        60.60735        -2.02003
C         52.69551        62.76970        -2.25199
C         51.38791        63.51432        -2.34818
C         52.45798        65.52098        -1.30578
C         51.35423        64.93024        -1.88859
C         52.31965        66.79219        -0.55674
C         51.19198        67.67073        -0.97260
C         52.23868        69.63693         0.23427
C         51.01024        68.93251        -0.19820
C         52.14554        71.01583         0.56359
C         50.90714        71.74781         0.39878
C         52.01262        73.75972         1.33224
C         50.86501        73.14373         0.75959
C         53.94023        46.42969         0.59435
C         55.25043        48.61060         0.28426
C         53.98977        47.85403         0.30814
C         55.26833        49.98398         0.10939
C         54.03422        50.77783         0.37357
C         55.17412        52.82481        -0.43252
C         53.94072        52.17205        -0.11835
C         55.19709        54.19020        -0.79967
C         53.95020        54.85788        -1.17859
C         55.17685        57.00520        -1.33486
C         53.91035        56.31621        -1.32291
C         55.18549        58.45894        -1.51919
C         53.96156        59.12368        -1.72806
C         55.19351        61.33942        -1.90596
C         53.93623        60.57925        -1.67059
C         55.18091        62.78133        -1.62223
C         53.94508        63.52580        -1.90981
C         54.95310        65.51398        -0.61824
C         53.81864        64.95104        -1.39952
C         54.81154        66.75209         0.02862
C         53.50540        67.45106         0.09830
C         54.61014        69.62459         0.77886
C         53.45769        68.93007         0.34264
C         54.50951        70.97125         1.18101
C         53.29596        71.68247         1.06661
C         54.34192        73.68194         2.12281
C         53.21665        73.06428         1.50939
C         56.46079        50.72351        -0.08245
C         57.63860        52.85730        -0.33718
C         56.43277        52.12101        -0.27395
C         57.65017        54.24578        -0.54371
C         56.40565        54.92594        -0.83050
C         57.69714        57.07304        -1.23174
C         56.38205        56.32207        -1.11522
C         57.56084        58.48463        -0.65583
C         56.38885        59.17224        -1.30688
C         57.68160        61.35718        -1.27609
C         56.49731        60.57333        -1.66718
C         57.60221        62.74934        -1.10311
C         56.31708        63.46051        -1.18011
C         57.36854        65.35456         0.02030
C         56.18703        64.78460        -0.63029
C         57.28818        66.76326         0.58888
C         55.94608        67.41556         0.68258
C         57.16650        69.68895         0.94704
C         55.90194        68.90711         0.97955
C         57.05621        71.00242         1.63937
C         55.65619        71.59571         1.87355
C         56.65663        73.57233         2.99736
C         55.56073        73.00738         2.31855
C         58.85766        54.98787        -0.42521
C         60.04616        57.12533        -0.34567
C         58.89257        56.37241        -0.61351
C         60.08787        58.54325        -0.49062
C         58.86487        59.24807        -0.77121
C         60.16939        61.33124        -0.98802
C         58.88229        60.62155        -0.99673
C         60.11131        62.87525        -0.87803
C         58.78300        63.48098        -0.75997
C         59.86506        65.54296        -0.00549
C         58.70091        64.79804        -0.29333
C         59.74929        67.00353         0.13560
C         58.46082        67.61774         0.46327
C         59.65214        69.72886         0.54945
C         58.37557        69.02479         0.58819
C         59.45961        71.69348         1.55629
C         58.16580        71.90833         2.00078
C         59.10642        73.54875         3.53243
C         57.95982        72.98813         2.93373
C         61.29501        59.26050        -0.29407
C         62.51331        61.42610        -0.16997
C         61.37053        60.65639        -0.47066
C         62.48963        62.84459        -0.07734
C         61.26816        63.56264        -0.29873
C         62.32636        65.68466         0.42984
C         61.14742        64.92939         0.02693
C         62.26832        67.04317         0.65613
C         61.03470        67.79292         0.42612
C         62.09059        70.06145         1.22875
C         60.87562        69.19613         0.85466
C         61.84989        71.26582         2.19314
C         60.61715        71.98722         2.31981
C         61.54121        73.48852         4.00339
C         60.40800        73.00120         3.32913
C         63.62030        63.57286         0.39577
C         64.67943        65.65711         1.18149
C         63.57439        64.95540         0.64011
C         64.64330        67.04354         1.45010
C         63.49980        67.88387         0.91643
C         64.38101        69.79793         2.34042
C         63.14256        69.08786         1.84400
C         64.24174        71.07094         2.91988
C         62.94423        71.73239         2.94691
C         63.95019        73.49752         4.37475
C         62.80989        72.91433         3.77505
C         65.70328        67.70698         2.05270
C         66.74763        69.74124         2.96308
C         65.62187        69.09515         2.42406
C         66.64555        71.03934         3.51283
C         65.37143        71.68614         3.53878
C         66.38121        73.54055         4.80823
C         65.23571        72.93397         4.23130
C         67.77029        71.68857         4.09533
C         67.63141        72.92544         4.71895
O         55.74244        67.90348         2.05213
O         34.01890        65.20193        -2.71601
O         45.98178        42.31065         2.11924
O         43.43290        54.21933        -2.16582
O         49.12765        60.15965        -0.22851
O         40.45259        44.88748        -1.68823
O         36.11939        55.16400        -2.72790
O         45.78739        63.48401        -0.46851
O         44.25209        60.97448        -0.28902
O         32.77338        67.33007        -2.42113
O         55.98499        60.89842        -3.02603
O         48.27264        41.39764        -0.78310
O         57.32379        65.60213         1.48345
O         54.18934        64.66089        -2.79351
O         49.68413        55.08926         1.04783
O         32.60026        58.97982        -1.75776
O         45.25111        45.05524        -1.32162
O         38.78851        51.79622         1.52192
O         38.27096        56.32196        -3.00994
O         53.19895        54.14983        -2.22075
O         48.37351        40.11248         2.56211
O         46.62732        37.93284        -0.47993
O         46.19153        51.87347         1.87127
O         59.60219        71.09968         0.30374
O         27.99157        72.17544         4.07373
O         37.74640        66.44800        -3.53333
O         50.87845        50.71415         2.10503
O         43.24707        50.57398         1.89758
O         48.82968        46.91358         2.05774
O         49.94680        68.86675         0.80066
O         53.21622        61.13286        -0.49588
O         43.47780        72.01571        -3.46705
O         48.55023        43.97979        -1.32860
O         38.52255        63.10874        -0.55629
O         36.78159        58.82334        -3.07319
O         35.85755        63.49823        -0.17133
O         56.26074        70.74825         2.87960
O         52.49107        66.69515         0.88581
O         43.52113        58.49112        -3.03153
O         30.74625        64.71444        -1.55071
O         41.28956        73.36334        -2.95528
O         53.65816        50.53501         1.79700
O         60.50122        67.65868        -0.95103
O         43.10727        56.92598         0.13667
O         60.38321        62.18676        -2.13976
O         51.09492        67.79935        -2.41707
O         32.55303        56.52303        -1.80769
O         34.88714        52.77735        -1.88515
O         39.36910        67.43946        -0.52041
O         32.63646        54.08416        -1.46166
O         28.90556        68.76686         4.32421
O         39.48595        58.88866        -0.40073
O         39.77135        61.98474        -3.65245
O         52.15855        63.12255        -3.55390
O         50.47600        58.58988        -3.10718
O         45.30287        35.27353        -0.31170
O         45.73237        67.61473        -3.85512
O         53.13807        48.25943        -0.87148
O         41.33751        59.60252        -3.45873
O         43.57269        67.43184        -0.76761
O         62.47904        68.53696         3.01411
H         63.14147        68.03760         3.53632
O         52.94999        58.08347        -3.54995
H         52.06401        57.93168        -3.95568
O         48.71450        63.39976        -3.94620
H         49.57423        63.67107        -4.33591
O         45.01459        65.21236        -4.10511
H         45.51559        65.90018        -4.60557
O         57.26960        58.32542         0.76332
H         57.16979        59.21399         1.16379
O         37.59902        70.16503        -3.76136
H         38.31629        70.76065        -4.06588
O         43.79821        39.61101         2.96372
H         44.67989        39.49597         3.37841
O         35.20757        69.60616         0.10811
H         36.01556        69.97620         0.52383
O         57.98345        57.23327        -2.64374
H         58.01810        56.34539        -3.05602
O         62.61682        70.63806         0.00809
H         61.88417        71.13228        -0.42034
O         47.87997        50.07094         2.59272
H         47.51700        50.91971         2.93870
O         44.76469        36.25251        -1.16975
H         45.47992        36.98575        -1.14237
O         41.64955        63.63323        -4.07580
H         41.20931        62.86091        -4.50602
O         40.33449        49.79275         2.21762
H         40.13532        50.66994         2.61732
O         46.88492        69.90808        -3.72026
H         46.34187        69.44075        -4.39469
O         32.58308        69.08941         1.16063
H         33.54873        69.15514         0.95687
O         63.96685        68.35991        -0.36599
H         63.41346        69.13303        -0.63446
O         33.70970        69.94169        -3.20392
H         32.94769        69.47587        -3.60941
O         29.65625        69.54672        -0.96543
H         28.81282        70.03329        -0.85469
O         38.71119        46.75804        -1.99311
H         39.08410        45.99236        -2.49054
H         23.93988        75.21053         3.59807
H         26.06249        75.22697         2.34923
H         28.15653        75.23164         0.98728
H         30.40380        75.24499        -0.04774
H         32.71974        75.28775        -0.76908
H         35.15789        75.34475        -1.02767
H         37.64746        75.36868        -1.06641
H         40.01778        75.19063        -0.43019
H         42.71344        75.19031        -0.50441
H         44.93718        75.11574        -0.42582
H         47.27460        75.05124         0.11228
H         49.63858        74.93097         0.86068
H         51.94804        74.81256         1.64522
H         54.24400        74.71960         2.47567
H         56.53855        74.54944         3.48868
H         58.99662        74.40512         4.21307
H         61.44540        74.32653         4.70888
H         63.82728        74.41658         4.96715
H         66.27325        74.50031         5.33324
H         23.87964        69.49143         5.30327
H         22.47070        71.54071         5.35666
H         22.17609        73.95524         4.82081
H         26.25255        65.25963         4.71651
H         25.12073        67.40939         5.07672
H         28.35207        60.91159         3.65186
H         27.35465        63.11496         4.26579
H         30.16534        56.54847         2.08864
H         29.29527        58.69238         2.91283
H         32.01100        52.24522         1.10274
H         31.12531        54.47010         1.53437
H         34.38245        47.86849         0.54412
H         33.12478        50.01768         0.85963
H         36.90352        43.72701         0.19274
H         35.67969        45.76535         0.38680
H         39.37407        39.52025         0.55685
H         38.12637        41.61507         0.26804
H         41.73119        35.34035         1.69267
H         40.56094        37.45517         1.13664
H         45.10229        32.08573         2.65576
H         42.95452        33.24695         2.20430
H         47.24936        33.31995         2.60440
H         48.49193        35.36386         2.26252
H         49.82849        37.36583         1.84101
H         51.21765        39.53572         1.20250
H         52.46092        41.65227         0.86364
H         53.66390        43.79243         0.77913
H         54.88044        45.87636         0.73211
H         56.19508        48.04653         0.27578
H         57.42766        50.19913        -0.09010
H         58.59107        52.33254        -0.17097
H         59.76812        54.46365        -0.09579
H         60.95676        56.60328        -0.01273
H         62.19529        58.70918         0.01604
H         63.43375        60.90289         0.13028
H         64.55567        63.02742         0.59203
H         65.58536        65.09157         1.45059
H         66.62067        67.15444         2.30776
H         67.71126        69.21222         2.99698
H         68.75191        71.19523         4.05672
H         68.50969        73.41223         5.16553
