         621
 CSIRO Nanostructure Databank - Neutral Graphene Oxide Data Set
C          6.12546        31.67979         1.75312
C          6.25856        33.02677         1.55070
C          8.79961        27.46644         1.20990
C          8.68003        28.84434         0.98252
C          7.52244        29.52199         1.58204
C          8.62116        31.75486         0.17880
C          6.99669        30.69924         1.12651
C          8.60239        33.11077         0.52363
C          7.39155        33.76815         0.99667
C          8.62183        35.93457         0.97647
C          7.42557        35.14311         1.15789
C          8.58142        37.30742         1.14751
C         11.29219        23.18082         0.90015
C         11.18647        24.57623         0.75246
C         10.05064        25.31882         1.10174
C         11.11991        27.46683         0.47118
C          9.97984        26.74031         0.90761
C         11.04034        28.84894         0.21859
C          9.79362        29.54377         0.38091
C         11.01537        31.67843        -0.01403
C          9.80094        30.96673         0.16599
C         11.01307        33.10843         0.09041
C          9.84348        33.82017         0.47014
C         11.09424        35.93889         0.63876
C          9.87938        35.24222         0.69902
C         11.08996        37.43923         0.76577
C          9.79016        38.14564         1.10507
C         10.21134        40.41102         0.05876
C          9.66235        39.64961         1.02396
C         10.39099        41.89811        -0.07114
C         13.86568        18.98796         1.15057
C         13.78709        20.36938         0.94962
C         12.56868        21.08195         0.96913
C         13.70798        23.16034         0.28180
C         12.51114        22.47153         0.70147
C         13.62373        24.57957        -0.08968
C         12.33610        25.30952         0.16616
C         13.57476        27.47057        -0.20938
C         12.45467        26.77302         0.51941
C         13.48719        28.83309        -0.43725
C         12.24028        29.56183        -0.18601
C         13.37309        31.72147        -0.84922
C         12.21608        30.94895        -0.27787
C         13.45966        33.11939        -0.29102
C         12.26138        33.81069         0.03743
C         13.61362        35.71011         0.61973
C         12.30880        35.17515         0.44365
C         13.47668        37.78332         0.26208
C         12.18097        38.19493         0.04807
C         13.11727        40.27637        -0.89213
C         12.02929        39.39116        -0.71902
C         13.05553        41.71622        -0.70451
C         11.82428        42.42428        -0.35579
C         13.07089        44.57920        -0.22542
C         11.86832        43.80064        -0.28912
C         12.92229        45.98493        -0.21999
C         15.92682        14.60150         0.35222
C         16.04981        16.02041         0.41798
C         15.02069        16.81471         0.90751
C         16.22627        18.91175         0.45205
C         15.06685        18.25134         0.89688
C         16.32844        20.37117         0.46848
C         15.03333        21.13377         0.74842
C         16.17026        23.19140        -0.06054
C         14.95868        22.52479         0.28564
C         16.14687        24.66382        -0.09568
C         14.86665        25.36934        -0.16991
C         16.01638        27.46299        -0.77569
C         14.82111        26.74652        -0.36865
C         15.92677        28.86887        -0.98842
C         14.68686        29.56421        -0.81127
C         15.90009        31.67097        -0.93654
C         14.67747        30.96735        -0.84046
C         15.95223        33.06495        -0.46370
C         14.68055        33.78884        -0.30559
C         15.96729        35.93503        -0.33825
C         14.76416        35.14494         0.08100
C         15.85957        37.38650        -0.69072
C         14.54417        38.13163        -0.64326
C         15.65558        40.31004        -1.36407
C         14.38731        39.57346        -1.15629
C         15.55661        41.79510        -1.13738
C         14.27124        42.44667        -0.70458
C         15.58073        44.44695        -0.07437
C         14.32628        43.82611        -0.27996
C         15.71986        45.70454         0.56430
C         13.90622        46.87306         0.32200
C         15.52233        48.76180         0.56342
C         14.28516        48.17948         0.05798
C         15.65818        50.14154         0.59154
C         18.23981        10.39181         0.56984
C         18.26200        11.67863        -0.01361
C         17.05455        12.42699        -0.04843
C         17.90252        14.57098        -1.04458
C         16.92958        13.83326        -0.25710
C         18.21632        15.88745        -0.89773
C         17.32885        16.65676        -0.00364
C         18.39786        18.85244        -0.85470
C         17.40172        18.15774         0.01858
C         18.53476        20.33708        -0.71163
C         17.44081        21.07218        -0.21499
C         18.53878        23.19586        -0.86806
C         17.38915        22.50019        -0.32628
C         18.54648        24.61321        -1.05024
C         17.39946        25.40620        -0.56745
C         18.36546        27.47983        -1.55868
C         17.24065        26.79878        -1.00245
C         18.28834        28.87504        -1.71226
C         17.10245        29.58375        -1.35638
C         18.31002        31.77546        -1.43313
C         17.09198        31.00943        -1.26922
C         18.40039        33.08313        -1.01824
C         17.27263        33.79145        -0.36990
C         18.47615        36.01653        -0.38098
C         17.31466        35.29598        -0.27956
C         18.43983        37.55453        -0.51153
C         17.09974        38.23022        -0.70062
C         18.12568        40.35191        -1.50397
C         16.98344        39.63502        -1.22976
C         18.13001        41.80856        -1.40763
C         16.88650        42.40165        -0.81555
C         18.08792        44.63262        -0.51137
C         16.87916        43.80765        -0.35887
C         18.04935        45.94437        -0.08508
C         16.84385        46.50425         0.47099
C         18.02559        48.64153         1.12146
C         16.72119        47.91964         0.92714
C         18.05059        50.10936         1.13031
C         16.88148        50.85047         0.91913
C         18.14420        52.99523         1.07688
C         16.94958        52.28431         0.88248
C         18.27880        54.39493         0.90032
C         20.53194         6.63704         2.85247
C         20.60461         7.86705         2.13971
C         19.41178         8.46874         1.59466
C         20.72308        10.36383         0.70320
C         19.42210         9.70392         0.95203
C         20.74745        11.78817         0.33775
C         19.57183        12.30420        -0.24423
C         20.81224        14.35472        -0.83539
C         19.72741        13.47833        -0.99443
C         20.75511        15.70946        -1.47550
C         19.38310        16.46497        -1.70496
C         20.75022        18.74016        -1.84352
C         19.45510        18.03130        -1.53739
C         20.81905        20.22890        -1.68883
C         19.65948        20.99485        -1.26643
C         20.80228        23.12633        -1.81929
C         19.67527        22.43670        -1.29889
C         20.81671        24.53984        -1.95044
C         19.63698        25.29528        -1.63184
C         20.71503        27.41688        -2.34659
C         19.60060        26.74644        -1.85330
C         20.66928        28.87547        -2.67486
C         19.40322        29.62678        -2.32685
C         20.77522        31.85080        -2.16288
C         19.45223        31.12559        -2.13416
C         20.88628        33.19273        -1.55226
C         19.69949        33.75894        -0.89692
C         21.05915        35.81309        -0.54423
C         19.73856        35.18574        -0.38965
C         20.89009        37.98902        -0.86678
C         19.59646        38.35236        -1.06940
C         20.60104        40.45186        -2.11668
C         19.35123        39.56295        -1.95801
C         20.56455        41.94380        -1.90388
C         19.28082        42.55760        -1.44815
C         20.58889        44.53856        -0.60095
C         19.29624        44.06909        -1.25850
C         20.60137        45.95495        -0.15192
C         19.29299        46.73785         0.00037
C         20.51920        48.57138         1.10753
C         19.30741        47.96813         0.79520
C         20.57022        49.97462         1.49599
C         19.29936        50.74138         1.53044
C         20.66345        52.91412         1.41999
C         19.35257        52.26808         1.52184
C         20.74333        54.28567         1.25752
C         19.51962        55.05614         1.05377
C         20.87029        57.11992         1.08533
C         19.62960        56.45913         0.95694
C         20.94119        58.53070         1.06556
C         22.61559         4.54731         5.16174
C         21.53158         4.98424         4.40819
C         22.90546         6.79347         3.50643
C         21.65092         6.12644         3.56831
C         23.11814         7.89014         2.50484
C         21.84163         8.53514         2.06380
C         23.11216        10.67525         1.56016
C         21.97537         9.77259         1.29825
C         23.10129        11.98862         1.07410
C         21.94520        12.54579         0.38461
C         23.17490        14.68219        -0.15671
C         21.96495        13.87248        -0.16585
C         23.22681        15.90555        -0.78244
C         22.05642        16.46760        -1.52109
C         23.35060        18.70107        -1.82132
C         22.04298        17.94816        -1.86763
C         23.32052        20.20673        -2.03535
C         22.00617        20.88879        -1.95895
C         23.31210        23.08910        -2.38583
C         21.98600        22.34604        -2.20214
C         23.27225        24.57332        -2.34824
C         22.02370        25.22605        -2.30899
C         23.27075        27.42186        -2.83269
C         21.95520        26.66261        -2.63721
C         23.25289        28.93248        -2.83252
C         21.95182        29.67938        -2.79750
C         23.23429        31.80866        -2.33541
C         22.03007        31.10932        -2.37669
C         23.27022        33.24713        -2.13382
C         22.04839        33.92104        -1.71127
C         23.17920        36.16937        -1.85058
C         22.09147        35.31809        -1.28860
C         23.19717        37.67437        -1.80309
C         22.03309        38.42750        -1.63080
C         23.30130        40.53086        -2.18009
C         21.94543        39.76252        -2.19094
C         23.21318        41.94336        -1.68258
C         21.86876        42.63031        -1.54397
C         22.93075        44.22684         0.14863
C         21.73989        43.80521        -0.62973
C         22.90339        45.60658         0.79257
C         21.76415        46.51152         0.52748
C         22.95649        48.38974         1.61140
C         21.74712        47.81369         0.98943
C         22.97079        49.84395         1.98360
C         21.75765        50.63097         1.71593
C         23.13839        52.80332         1.81509
C         21.90911        52.08371         1.33001
C         23.21414        54.18189         1.65668
C         22.02419        54.95194         1.35049
C         23.34156        57.03658         1.42135
C         22.08953        56.35671         1.28036
C         23.38335        58.45602         1.37273
C         22.16301        59.20478         1.22335
C         23.41548        61.28467         1.41675
C         22.21615        60.63324         1.24663
C         23.83272         5.23747         5.13080
C         25.19725         7.16672         4.32493
C         23.98485         6.37163         4.30268
C         25.28099         8.39245         3.71311
C         24.19495         8.89095         2.89554
C         25.31060        11.13530         2.71140
C         24.20339        10.16645         2.35432
C         25.45763        12.24443         1.70183
C         24.32390        12.76698         1.12910
C         25.68813        14.71559         0.33554
C         24.31547        14.22393         0.73467
C         25.76451        16.02659        -0.34502
C         24.50473        16.67178        -0.85550
C         25.61248        18.94557        -0.72137
C         24.48087        18.11679        -1.10517
C         25.71331        20.37259        -1.13684
C         24.53262        21.01480        -1.69669
C         25.79909        23.11655        -1.88596
C         24.53913        22.36087        -1.98434
C         25.76812        24.59363        -2.14377
C         24.48768        25.30522        -2.37369
C         25.74951        27.42963        -2.43031
C         24.53141        26.71534        -2.50870
C         25.74613        28.90522        -2.35291
C         24.47957        29.66797        -2.40160
C         25.71520        31.83607        -2.50678
C         24.51344        31.14963        -2.50574
C         25.75105        33.29179        -2.42215
C         24.46992        33.94088        -2.22282
C         25.66876        36.17612        -2.45114
C         24.42598        35.41296        -2.26797
C         25.48056        37.50892        -2.68348
C         24.39259        38.34825        -2.24279
C         25.80490        40.46683        -1.78149
C         24.54975        39.75406        -2.06030
C         25.68878        41.71400        -1.03660
C         24.28918        42.19388        -0.62207
C         25.32929        43.97183         0.83561
C         24.24304        43.59667        -0.06562
C         25.39011        45.42324         1.38399
C         24.22677        46.27392         1.01255
C         25.52213        48.38393         1.77758
C         24.26271        47.72881         1.34135
C         25.54206        49.74081         1.95978
C         24.29251        50.52636         2.18169
C         25.65832        52.70878         2.06677
C         24.34642        52.02872         2.15904
C         25.68865        54.12669         2.00239
C         24.48481        54.87533         1.80589
C         25.82013        56.93689         1.74903
C         24.54767        56.27755         1.65529
C         25.93607        58.42765         1.52584
C         24.61846        59.16420         1.50282
C         24.62126        60.54858         1.53484
C         26.50655         9.24596         3.97907
C         27.80539        11.04441         2.85747
C         26.60566        10.46141         3.08845
C         27.96198        12.26766         2.08446
C         26.80534        12.68592         1.22233
C         28.15443        14.76260         0.53432
C         26.83712        14.10503         0.73205
C         28.16095        16.22210         0.29217
C         26.97264        16.82899        -0.09160
C         28.17974        19.03664        -0.40586
C         26.87869        18.28271        -0.19551
C         28.00806        20.51387        -0.02788
C         26.85830        21.10777        -0.83598
C         28.09873        23.23512        -0.93389
C         26.94563        22.49906        -1.17679
C         28.08568        24.70498        -1.03483
C         26.87323        25.41172        -1.55218
C         28.15009        27.52680        -1.82228
C         26.97041        26.81759        -2.00321
C         28.28743        28.89536        -2.36417
C         27.01038        29.61844        -2.68247
C         28.30425        31.83551        -2.68792
C         26.98927        31.11427        -2.78488
C         28.23785        33.28880        -2.31877
C         26.94667        34.01180        -2.46338
C         28.26155        36.22283        -2.00370
C         27.00905        35.51445        -2.76729
C         28.39793        37.75353        -2.08800
C         27.35558        38.59710        -2.46318
C         28.32997        40.55330        -1.47331
C         27.09673        39.88494        -1.90755
C         28.17255        41.90547        -0.72588
C         26.79437        42.29768        -0.42437
C         27.82325        43.84001         1.39254
C         26.62382        43.24072         0.71005
C         27.72308        45.19031         2.01967
C         26.64846        46.04687         1.81574
C         27.95380        48.30590         2.31213
C         26.80826        47.57327         1.61580
C         28.11332        49.74104         2.02116
C         26.81065        50.51177         1.90894
C         28.11295        52.62039         2.25472
C         26.84053        51.96804         2.12456
C         28.13513        54.02988         2.25044
C         26.95546        54.78813         2.08073
C         26.97525        56.21323         1.97085
C         29.13928        12.94634         2.07528
C         30.46506        15.05359         1.59980
C         29.36051        14.16356         1.26865
C         30.51335        16.38163         1.15226
C         29.35071        16.99628         0.53853
C         30.51910        19.15902         0.49571
C         29.36543        18.38379         0.27363
C         30.52251        20.58353         0.23737
C         29.32202        21.24857        -0.15111
C         30.50528        23.39803        -0.34728
C         29.32275        22.62822        -0.45746
C         30.54229        24.78685        -0.70191
C         29.35228        25.44111        -1.00901
C         30.67678        27.59438        -1.35311
C         29.32692        26.88950        -1.21171
C         30.72124        28.97369        -1.90562
C         29.54413        29.66695        -2.20193
C         30.78273        31.77499        -2.27853
C         29.57092        31.08171        -2.40792
C         30.80420        33.26164        -2.43336
C         29.52924        34.02523        -2.20772
C         30.82797        36.13972        -1.75262
C         29.59435        35.54457        -2.43663
C         30.75655        37.53478        -1.14058
C         29.53782        38.37291        -1.47925
C         30.78813        40.53074        -1.00965
C         29.53946        39.74253        -1.24195
C         30.67178        41.85921        -0.27044
C         29.32854        42.41246         0.05527
C         30.35014        44.06642         1.60475
C         29.19557        43.42784         0.97713
C         30.19876        45.24192         2.43059
C         28.90113        45.63138         2.70667
C         30.28599        48.28197         3.16745
C         28.93313        47.76017         3.08551
C         30.43086        49.66495         2.95326
C         29.31412        50.45463         2.52814
C         29.30374        51.84792         2.50160
C         31.67935        17.17165         1.34696
C         32.91280        19.29795         1.09510
C         31.72002        18.53117         0.98853
C         32.93303        20.66644         0.76981
C         31.71824        21.31483         0.38501
C         32.99769        23.44242        -0.05970
C         31.69166        22.82142         0.36665
C         33.03671        24.68229        -0.64484
C         31.82702        25.46174        -0.87586
C         33.11863        27.40031        -1.97463
C         31.89230        26.77102        -1.31930
C         33.17958        28.89940        -1.69238
C         31.97021        29.64937        -1.86490
C         33.24498        31.74392        -1.78877
C         31.99972        31.07031        -1.99690
C         33.32611        33.21477        -1.94067
C         32.07387        34.01508        -2.17871
C         33.23638        36.02945        -1.15235
C         32.00974        35.43487        -1.69991
C         33.30733        37.51302        -1.11559
C         32.05992        38.29664        -1.38428
C         33.45922        40.33771        -0.86067
C         32.10498        39.79489        -1.18851
C         32.88176        41.44990         1.15247
C         31.78846        42.33667         0.61209
C         32.77115        44.06580         2.13819
C         31.60193        43.49104         1.50928
C         32.62788        45.31208         2.77816
C         31.37269        45.97639         2.90444
C         31.36831        47.35032         3.27845
C         34.15014        21.42475         0.79480
C         35.44743        23.44311         0.25728
C         34.21800        22.74336         0.32690
C         35.55567        24.70220        -0.37615
C         34.34346        25.27142        -1.03071
C         35.72096        27.37243        -1.61523
C         34.41261        26.61922        -1.68782
C         35.65775        28.84814        -1.36872
C         34.36190        29.57838        -1.44492
C         35.59798        31.69564        -0.94474
C         34.38967        31.01510        -1.41002
C         35.60514        33.06875        -0.79415
C         34.51579        33.90281        -1.32816
C         35.54510        35.95246        -0.27000
C         34.39699        35.32193        -0.90941
C         35.52302        37.36154         0.00818
C         34.44661        38.15680        -0.42658
C         35.51132        40.16963         0.59443
C         34.46618        39.55901        -0.21518
C         35.39268        41.46717         1.18596
C         34.17750        42.14532         1.40014
C         34.04477        43.42920         1.96303
C         36.78685        25.30970        -0.55091
C         37.90031        27.34122        -0.32606
C         37.01283        26.59656        -1.28428
C         37.77275        28.70592        -0.01309
C         36.74219        29.50418        -0.60923
C         37.76755        31.51031         0.29954
C         36.71681        30.89745        -0.43160
C         37.92077        32.96825         0.29106
C         36.78962        33.78964        -0.29770
C         37.75360        35.80267         0.83256
C         36.67060        35.20413         0.09820
C         37.73212        37.17646         1.08367
C         36.64871        37.98645         0.65539
C         36.62218        39.37028         0.92573
C         38.72183        29.33947         0.84311
C         39.72921        31.40169         1.80781
C         38.73531        30.72900         0.98768
C         39.76520        32.75688         1.94957
C         38.83938        33.61546         1.24730
C         38.79590        34.98025         1.40685
O         29.14218        13.98547        -0.19411
O         17.08665        42.63921         0.61408
O         27.03641        25.27995        -0.10786
O         12.66436        24.92109        -1.18762
O         26.20255        23.69771        -3.21002
O         21.59820        15.68933        -2.67519
O         22.77439        48.79029         2.99898
O         18.04027        17.36042         1.09211
O         31.53388        40.59850        -2.27816
O         17.77256        38.21396         0.61846
O         19.16825        51.52528         2.77474
O         22.54083        26.90498        -3.97178
O         21.32493        18.24123        -3.09310
O         22.56596        22.59753        -3.53763
O         27.74306        28.97430        -3.74872
O         15.79717        36.39072        -1.75655
O         29.93278        27.62378        -0.08243
O         19.84162        34.07989         0.56654
O         18.70809        13.80183        -1.89583
O         19.67697        29.20635        -3.69793
O         25.46131        15.95531        -1.79962
O         20.46126        41.37326        -3.24116
O         28.87450        33.55853        -0.97558
O         24.99593        44.29744         2.22342
O         27.09439        42.71406         2.00357
O         32.92283        37.96347        -2.49367
O         10.73770        39.76632        -1.08435
O         16.73287        33.12464         0.81311
O         14.66735        46.21635         1.31569
O         14.12965        38.42264        -2.01191
O         35.98622        28.29422        -2.71763
O         34.40736        33.70197        -2.79281
O         21.18422        37.03484         0.11108
O         22.57020        44.45485         1.59768
O         23.39110        35.81172        -3.26281
O         15.56125        41.25070        -2.49020
O         28.53127        41.83856        -2.13789
O         24.43570        47.25842        -0.05034
O         27.63184        50.17081         0.70636
O         23.63568        19.30238        -3.14218
O         18.31145        18.56503        -2.28994
O         38.00775        33.51698        -1.07328
O         25.91342        18.82345         0.78013
O         19.85512        31.83969        -3.33869
O         31.69110        42.78999        -0.79399
O         25.05512        29.29970        -1.08838
O         32.58972        40.34644         1.60706
O         22.82580        42.95827        -2.62601
O         16.02896        20.93282         1.79827
O         27.68588        31.59435        -3.98469
O         26.47143        38.15452        -3.43259
O         27.01154        11.81510        -0.05221
O         20.08249        46.83290        -1.23507
O          7.42493        31.11869        -0.15361
O         10.80729        37.84481         2.14562
O         21.64841         9.58627        -0.14125
O         17.10934        25.24337         0.86232
O         34.49640        25.41294        -2.50734
O         31.57759        33.79167        -3.55520
O         13.76328        36.92474         1.31540
O         17.25810        48.11059         2.28131
O         22.69168        29.47394        -4.05410
O         24.27612        51.27078         3.44887
O         28.68922        46.54428         3.73574
O         22.63455        40.10806        -3.40238
O         26.83005        59.01352         2.48331
H         26.43894        58.90214         3.37384
O         27.68413        20.64081         1.37965
H         26.85920        20.11524         1.53965
O         28.44503        19.01926        -1.83327
H         28.61361        18.09426        -2.11099
O         24.03101        14.92502         2.00484
H         24.45974        14.42364         2.73282
O         37.71858        26.33160        -2.52130
H         37.51553        27.07933        -3.12806
O         19.23865        44.62540        -2.60000
H         19.52874        45.56840        -2.53307
O         27.16559        47.60026         0.20101
H         27.27442        48.55465        -0.04693
O         27.22832        35.59339        -4.18077
H         27.14477        36.53537        -4.45149
O         30.69775        37.33352         0.30453
H         29.82440        36.91568         0.49168
O         25.98605        12.16129        -0.98687
H         26.42642        12.81497        -1.58486
O         23.86768        41.29294         0.46504
H         24.28913        41.59939         1.29825
O         24.84800        11.83044         3.93567
H         24.57585        11.14367         4.58137
O         19.02899        39.07199        -3.27999
H         19.14162        39.82265        -3.90567
O          9.53796        42.34343        -1.13978
H          9.74405        41.79437        -1.92602
O         32.86901        27.30040        -3.40089
H         33.28527        26.46075        -3.70476
O         28.09054        36.03223        -0.58089
H         28.20436        35.06292        -0.39053
O         12.85448        26.76531         1.93582
H         12.93518        27.69684         2.23135
O         22.15408        51.95420        -0.14973
H         22.25733        52.86385        -0.50686
O         19.06409        16.24866        -3.08046
H         19.87168        16.45666        -3.60430
O         31.51706        23.22013         1.78531
H         30.65959        22.85003         2.08823
O         13.04821        31.90823        -2.27545
H         12.93978        31.01939        -2.67582
O         23.63701         7.22573         1.28531
H         23.52154         7.85126         0.53642
O         33.77969        41.50332        -1.37248
H         32.96897        41.91108        -1.79413
O         27.69468         8.45513         3.91884
H         27.75885         8.06591         3.02270
O         29.76093        35.78942        -3.84079
H         30.53673        35.26071        -4.15105
H          5.31375        31.32650         2.40834
H          5.50023        33.66867         2.02971
H          7.95403        26.92765         1.66310
H          7.12028        29.07641         2.50476
H          6.52667        35.66222         1.52570
H          7.60794        37.80135         1.28838
H         10.42373        22.61949         1.27752
H          9.16882        24.79883         1.50575
H          9.22716        40.13711         1.91031
H         10.03321        42.40085         0.86316
H         12.94827        18.42712         1.38278
H         11.63945        20.54555         1.21242
H         10.91986        44.33852        -0.13685
H         11.95252        46.39046        -0.55136
H         15.08545        14.11304         0.86594
H         14.08621        16.33141         1.22981
H         13.65382        48.80789        -0.58882
H         14.77629        50.75462         0.34825
H         17.26749         9.93225         0.80389
H         16.17400        11.92585         0.38782
H         16.03730        52.84291         0.62336
H         17.38925        54.99149         0.64652
H         19.56886         6.10952         2.91572
H         18.45340         7.95162         1.75071
H         18.72058        57.05997         0.80323
H         20.01520        59.11258         0.94540
H         22.51122         3.66083         5.80288
H         20.57083         4.45233         4.45933
H         23.45036        62.38268         1.44420
H         21.28131        61.20111         1.13536
H         24.67478         4.90096         5.75213
H         26.04281         6.81778         4.93642
H         26.42327        58.57998         0.52020
H         25.57622        61.08095         1.64732
H         26.43331         9.61914         5.04284
H         28.71424        10.57462         3.26620
H         29.09732        54.55396         2.34980
H         27.93653        56.74393         2.03586
H         29.96657        12.60439         2.71680
H         31.27571        14.67063         2.23777
H         31.41507        50.14349         3.06541
H         30.21616        52.39272         2.78811
H         32.57957        16.69604         1.76321
H         33.83843        18.80545         1.42762
H         33.53125        45.82104         3.14692
H         32.36588        47.79376         3.43562
H         35.07754        20.92013         1.10493
H         36.35806        22.96903         0.65338
H         36.31004        41.91108         1.60330
H         34.94796        43.96232         2.29543
H         37.68180        24.79976        -0.16324
H         38.75905        26.79335         0.08949
H         38.56335        37.64133         1.63372
H         37.45155        39.81681         1.49373
H         39.48798        28.72748         1.34069
H         40.45808        30.77626         2.34373
H         40.51341        33.22403         2.60666
H         39.52529        35.47131         2.06871
