         234
 CSIRO Nanostructure Databank - Neutral Graphene Oxide Data Set
C          1.24608         1.99529         0.06792
C          1.22396         3.40108        -0.02090
C          2.43878         1.31340        -0.04235
C          2.38466         4.12891        -0.31524
C          1.10988         6.40422        -0.21157
C          1.08738         7.75809        -0.16201
C          2.39776         5.63061        -0.03800
C          2.29418         8.57547        -0.09405
C          1.10964        10.75715         0.35759
C          1.12738        12.10469         0.24471
C          2.28692         9.94679         0.07676
C          2.29739        12.83557        -0.37746
C          1.16455        15.09646        -0.24799
C          1.19915        16.49036        -0.22762
C          2.34020        14.33839        -0.14979
C          2.43235        17.17436        -0.19189
C          2.49005        18.62513        -0.22057
C          3.65619         2.01079        -0.32964
C          3.60070         3.43470        -0.54487
C          4.86568         1.29741        -0.31058
C          4.83692         4.14602        -0.94862
C          3.53530         6.38410        -0.69924
C          3.54384         7.86761        -0.49505
C          4.84842         5.67018        -0.90725
C          4.84773         8.51561        -0.36204
C          3.57032        10.69808         0.15074
C          3.60052        12.15464        -0.03899
C          4.86247         9.92720        -0.00698
C          4.79837        12.86446         0.03225
C          3.58628        15.01793        -0.05003
C          3.62622        16.42974        -0.10894
C          4.83219        14.28638         0.07217
C          4.95785        17.11332        -0.31029
C          3.67236        19.29315        -0.11936
C          4.93419        18.59740        -0.01533
C          6.15376         1.91151        -0.62550
C          6.14954         3.38485        -0.96676
C          7.42178         1.26797        -0.26243
C          7.43619         4.15166        -0.79149
C          6.08967         6.39885        -0.62411
C          6.07615         7.80186        -0.39163
C          7.36714         5.65533        -0.61020
C          7.31325         8.53277        -0.17867
C          6.10440        10.67808        -0.32563
C          6.09673        12.16187        -0.14970
C          7.36473         9.94073        -0.16029
C          7.35514        12.80275         0.23472
C          6.05232        14.98187         0.38517
C          6.09630        16.37072         0.34837
C          7.27246        14.18731         0.71920
C          7.27747        17.13992         0.74882
C          6.11116        19.27364         0.17115
C          7.35795        18.57811         0.38924
C          8.63851         1.96027        -0.24702
C          8.65442         3.40872        -0.35617
C          9.87412         1.29023        -0.01857
C          9.83057         4.09770        -0.09670
C          8.50066         6.28673         0.12557
C          8.52872         7.80635         0.21831
C          9.79393         5.54323         0.20707
C          9.82175         8.49022         0.18153
C          8.56165        10.67265        -0.01988
C          8.56194        12.09046         0.21953
C          9.84724         9.93530        -0.26342
C          9.83479        12.80937         0.38373
C          8.59590        14.90375         0.96264
C          8.60363        16.39461         1.01296
C          9.85544        14.21415         0.61570
C          9.86753        17.09893         0.78973
C          8.56669        19.22123         0.41456
C          9.82915        18.53833         0.64026
C         11.10255         1.98326         0.08552
C         11.09229         3.42924         0.07442
C         12.33582         1.31049         0.22426
C         12.30642         4.15014         0.14539
C         11.07891         6.31869         0.23886
C         11.04360         7.79512         0.11840
C         12.33619         5.58527        -0.00366
C         12.26293         8.46271        -0.09968
C         11.05500        10.65054         0.29225
C         11.06034        12.12492         0.26536
C         12.35711         9.89105         0.20314
C         12.30545        12.80403         0.31000
C         11.07271        14.93297         0.62513
C         11.09161        16.39038         0.74620
C         12.30284        14.22552         0.46135
C         12.33608        17.08870         0.85538
C         11.00307        19.24521         0.63596
C         12.32616        18.63013         0.98924
C         13.56772         2.00778         0.37734
C         13.55844         3.46626         0.29896
C         14.76788         1.30050         0.52272
C         14.75258         4.19905         0.31093
C         13.50945         6.28066        -0.22247
C         13.40728         7.71921        -0.72687
C         14.77423         5.61634        -0.03216
C         14.71799         8.51425        -0.72228
C         13.59853        10.65014        -0.07112
C         13.54681        12.10274         0.10025
C         14.72002         9.98254        -0.49599
C         14.73901        12.83665         0.03054
C         13.54395        14.92476         0.54943
C         13.54699        16.34517         0.86583
C         14.75128        14.22361         0.35204
C         14.82654        16.94377         1.08246
C         13.41330        19.25972         0.12241
C         14.72382        18.99343         0.42727
C         16.00704         1.96707         0.91088
C         15.98021         3.51199         0.74862
C         17.28516         1.17425         1.07238
C         17.24271         4.30880         0.63846
C         15.94896         6.37806        -0.04065
C         16.02108         7.78449        -0.48647
C         17.22072         5.77978         0.36726
C         17.28504         8.56056        -0.25718
C         16.00079        10.69529        -0.90129
C         15.96205        12.19059        -0.53484
C         17.28057         9.98303        -0.39391
C         17.26564        12.90357        -0.43688
C         16.04904        14.90110         0.60894
C         16.06503        16.37682         0.73894
C         17.32766        14.20218         0.29961
C         17.24392        17.15775         0.51830
C         15.94283        19.21875        -0.26579
C         17.16245        18.53829         0.00408
C         18.43590         1.51869         0.43405
C         18.47475         3.68705         0.15933
C         19.84207         1.17161         0.61579
C         19.70762         4.24705         0.26886
C         18.50619         6.36785        -0.18640
C         18.49890         7.87571        -0.12812
C         19.77080         5.75005         0.50420
C         19.75511         8.54962        -0.13226
C         18.50276        10.66319        -0.32735
C         18.54662        12.13307        -0.54775
C         19.75532         9.97773        -0.17793
C         19.80898        12.88926        -0.32205
C         18.55600        15.00965         0.18990
C         18.50289        16.41163         0.42501
C         19.78064        14.35634        -0.03933
C         19.76181        17.04043         0.51412
C         18.29876        19.20431        -0.58650
C         19.62360        19.02569        -0.18477
C         20.88705         2.00685         0.30830
C         20.89310         3.44303         0.02784
C         22.05678         4.12640        -0.28878
C         21.00961         6.35764        -0.10876
C         21.00173         7.81860        -0.16511
C         22.07469         5.55431        -0.44271
C         22.19135         8.54502        -0.22234
C         21.00764        10.68076        -0.13547
C         21.04474        12.16945         0.16822
C         22.18914         9.94910        -0.16313
C         22.25600        12.94204        -0.32027
C         21.00777        15.05220        -0.09935
C         20.99568        16.46723         0.12160
C         22.21564        14.29190        -0.40053
C         22.11868        17.32970        -0.13913
C         20.82698        19.36077        -0.84295
C         22.01870        18.64007        -0.60411
O          7.78643        16.91149         2.10407
O         19.79772        18.33689         1.03951
O         11.67128        10.15696         1.50624
O         19.39833        12.54273        -1.68226
O         15.82210         2.87443         2.05872
O          6.09473        11.53086        -1.51254
O          6.20106         2.43311        -2.05453
O          4.75711         4.93489        -2.18439
O         16.80665        14.16706         1.67148
O          4.35098        10.25659         1.33933
O         16.48323        13.00582        -1.66614
O         14.90299        18.23026         1.62079
O          7.75076         5.06997        -1.90166
O         17.35381         5.28086         1.74072
O          8.17682         6.91964         1.36847
O         15.52887         8.05816        -1.85478
O         18.28214         2.50639        -0.56655
O         10.46348         5.82891         1.48049
O          3.25144         7.21850        -1.83848
O          7.84262        14.31910         2.06829
O         10.06439         9.95277        -1.72300
H          9.23200         9.67191        -2.15949
O         16.06924        10.59673        -2.33952
H         16.48473        11.43110        -2.66469
O         21.01458        12.27691         1.62322
H         21.80216        11.81618         1.98055
O         19.81905         6.11611         1.89297
H         18.98737         5.79413         2.31825
O         18.52670         5.98317        -1.58369
H         19.23331         6.49043        -2.03553
O          2.73873         5.69722         1.39169
H          2.01923         5.26066         1.89509
O         12.52348        18.96750         2.38970
H         13.45588        18.73398         2.61336
O         13.02310         7.58060        -2.13379
H         13.86458         7.55022        -2.64852
O          2.12323        12.66983        -1.83175
H          2.91349        13.05154        -2.27043
O          5.21790        17.02428        -1.76554
H          4.47699        17.48063        -2.21884
H          0.31453         1.45280         0.28041
H          0.27672         3.92634         0.16438
H          2.47435         0.22392         0.09855
H          0.15743         5.85972        -0.29134
H          0.11652         8.27495        -0.20157
H          0.19444        10.25433         0.70525
H          0.22461        12.67875         0.50070
H          0.19569        14.58778        -0.34972
H          0.26324        17.06444        -0.28259
H          1.54338        19.18127        -0.28176
H          4.84762         0.23180        -0.03823
H          3.68325        20.39271        -0.07466
H          7.41227         0.19070        -0.04049
H          6.11408        20.37442         0.20921
H          9.87335         0.19215         0.04653
H          8.60682        20.30380         0.22001
H         12.34507         0.21055         0.25055
H         10.97580        20.33880         0.51633
H         14.76963         0.20962         0.37906
H         13.14196        19.80374        -0.79256
H         17.28927         0.41836         1.87184
H         15.98206        20.05901        -0.97563
H         20.08170         0.16097         0.98262
H         18.09179        19.93707        -1.38200
H         21.89520         1.56653         0.39801
H         22.99114         3.57272        -0.46248
H         22.99940         6.00858        -0.83107
H         23.15507         8.01789        -0.24311
H         23.15786        10.46728        -0.12191
H         23.19833        12.41673        -0.53567
H         23.12502        14.84370        -0.68089
H         23.11735        16.86894        -0.18068
H         20.83553        20.16410        -1.59415
H         22.94989        19.09002        -0.98475
