         344
 CSIRO Nanostructure Databank - Neutral Graphene Oxide Data Set
C          1.23562         3.58311         0.18293
C          0.03883         4.23758        -0.18289
C          1.10886         6.49003         0.12807
C         -0.03267         5.60291        -0.29036
C          1.24807         7.76858        -0.72414
C         -0.02835         8.56495        -0.75288
C          1.19774        10.68993        -0.73388
C         -0.03160         9.90832        -0.79628
C          1.18368        12.07822        -0.97835
C         -0.01818        12.81608        -1.18014
C          1.17150        14.96171        -1.36481
C         -0.03489        14.17691        -1.38951
C          1.15310        16.38005        -1.27834
C         -0.05488        17.18671        -1.34085
C          1.15080        18.90419        -0.06800
C         -0.05028        18.45328        -0.86549
C          1.15262        20.36461         0.39010
C         -0.08169        21.15810         0.46371
C          1.17497        23.26087         0.70096
C         -0.05460        22.49900         0.69720
C          1.18037        24.79127         0.78343
C         -0.05067        25.46051         1.35393
C          1.30042        27.46092         1.83466
C          0.02368        26.74638         1.75337
C          1.33506        28.89232         2.08005
C          3.66316         3.65926         0.59072
C          2.44030         4.31909         0.33882
C          3.61979         6.47967         0.25406
C          2.42394         5.74565         0.20122
C          3.59272         7.91838         0.14781
C          2.43666         8.60767        -0.25939
C          3.53212        10.89229         0.16370
C          2.40939        10.01598        -0.38487
C          3.69756        12.20240        -0.57840
C          2.48824        12.77265        -1.29543
C          3.61383        15.00444        -1.20860
C          2.41161        14.27977        -1.22097
C          3.61284        16.39819        -1.34381
C          2.38987        17.09454        -1.19968
C          3.65399        19.17859        -0.74104
C          2.42274        18.45731        -0.77964
C          3.65579        20.51824        -0.26346
C          2.45546        21.15167         0.34605
C          3.60204        23.43765         0.13558
C          2.36781        22.62440         0.44145
C          3.71034        24.70287         0.96317
C          2.43565        25.26043         1.55410
C          3.77972        27.39181         2.13801
C          2.47209        26.76035         1.72482
C          3.78331        28.89411         1.99879
C          2.51659        29.57359         2.13091
C          6.10104         3.70843         0.91530
C          4.87922         4.37389         0.65736
C          6.10132         6.50543         0.42630
C          4.87202         5.79910         0.45778
C          6.11755         7.93307         0.30770
C          4.84084         8.64989         0.44049
C          6.13886        10.82430         0.09047
C          4.85833        10.16123         0.39147
C          6.12468        12.33915         0.09820
C          4.84996        12.90463        -0.49250
C          6.13305        15.02381        -1.15009
C          4.86292        14.40454        -0.63600
C          6.14618        16.36942        -1.43610
C          4.86972        17.14324        -1.69215
C          6.09277        19.29102        -1.31037
C          4.89490        18.57073        -1.18876
C          6.00779        20.70242        -0.97117
C          4.84021        21.27814        -0.36753
C          6.07907        23.30548         0.24386
C          4.86900        22.63388         0.09607
C          6.21129        24.58342         1.02421
C          4.91000        25.33937         1.14720
C          6.15979        27.45126         1.29948
C          4.99148        26.73630         1.52210
C          6.20171        28.89505         1.50421
C          4.96367        29.57072         1.81150
C          8.54908         3.75434         1.21408
C          7.32790         4.40020         0.90203
C          8.56166         6.50493         0.47595
C          7.33724         5.80886         0.59213
C          8.56050         7.92148         0.19254
C          7.31662         8.64490         0.18965
C          8.59320        10.74464        -0.23275
C          7.32685        10.09390         0.03345
C          8.64901        12.26286        -0.21470
C          7.35393        12.96041        -0.55383
C          8.56507        14.82905        -1.74627
C          7.34725        14.22530        -1.07693
C          8.57120        16.34862        -1.71593
C          7.40076        17.09484        -1.63562
C          8.63030        19.19768        -1.62293
C          7.38023        18.57525        -1.60448
C          8.88068        20.61731        -1.51809
C          7.04507        21.63740        -1.16058
C          8.57414        23.29783        -0.00657
C          7.23162        22.75273        -0.34520
C          8.62754        24.76232         0.23338
C          7.37626        25.43850         0.57498
C          8.55440        27.58960         0.35353
C          7.34759        26.79029         0.79164
C          8.60969        28.99185         0.92182
C          7.38667        29.60487         1.34070
C         11.00085         3.84531         1.53156
C          9.76941         4.44256         1.13189
C         11.03984         6.43039         0.42889
C          9.79142         5.80632         0.68176
C         11.01402         7.79871        -0.13706
C          9.76183         8.58904        -0.08328
C         11.05944        10.66037        -0.77507
C          9.77155        10.00779        -0.29902
C         11.07726        12.16361        -0.72040
C          9.86826        12.86206        -0.87677
C         11.12602        14.84413        -1.51576
C          9.87844        14.19894        -1.30791
C         11.15835        16.27494        -1.78279
C          9.87708        16.97068        -1.96205
C         11.14500        19.07091        -1.29124
C          9.90763        18.48612        -1.80732
C         11.08976        20.34526        -0.56799
C          9.89391        21.17137        -0.78334
C         11.14680        23.25144        -0.06366
C          9.85629        22.53342        -0.18885
C         11.10950        24.62011         0.56833
C          9.83329        25.39748         0.32504
C         11.09508        27.57085         0.18126
C          9.85510        26.84735         0.73137
C         11.08421        29.01171         0.64288
C          9.82601        29.65118         0.94250
C         13.38428         3.88680         2.05000
C         12.22791         4.46951         1.34827
C         13.50443         6.47980         0.45368
C         12.26369         5.75614         0.66411
C         13.53241         7.87825         0.28133
C         12.33081         8.56243        -0.18698
C         13.49386        10.71833        -0.06166
C         12.32292        10.02940        -0.23684
C         13.51185        12.22943        -0.08134
C         12.30839        12.84427        -0.77206
C         13.64798        14.94896        -1.13920
C         12.33444        14.18574        -1.17872
C         13.63188        16.20387        -2.07164
C         12.35114        16.99142        -1.80310
C         13.58991        19.14161        -1.25490
C         12.36371        18.40799        -1.47683
C         13.62190        20.46532        -0.81967
C         12.39397        21.11336        -0.34696
C         13.60786        23.29918        -0.11849
C         12.34907        22.59059        -0.19908
C         13.61936        24.69138         0.22645
C         12.38681        25.40310         0.40161
C         13.57713        27.52692         0.63783
C         12.38156        26.81754         0.49139
C         13.55711        28.97438         0.65083
C         12.28344        29.66940         0.73679
C         15.94326         3.75868         2.26483
C         14.66817         3.98173         1.60525
C         15.96374         6.49999         0.80309
C         14.77818         5.84801         0.51381
C         15.96760         7.92402         0.69479
C         14.74539         8.60641         0.39683
C         15.98341        10.70104         0.10885
C         14.74761        10.01973         0.17830
C         16.02543        12.06689        -0.35501
C         14.81966        12.77496        -0.58675
C         16.10160        14.40821        -1.73891
C         14.84409        14.00409        -1.25319
C         16.11689        16.53604        -2.12666
C         14.87711        17.06994        -1.89511
C         16.11668        19.18056        -1.33779
C         14.83837        18.56690        -1.84434
C         16.08763        20.54696        -0.97108
C         14.84389        21.22612        -0.76622
C         16.06094        23.33795        -0.31884
C         14.82796        22.61100        -0.38656
C         16.07156        24.72450         0.05680
C         14.85788        25.38363         0.34762
C         16.13217        27.55635         0.89033
C         14.82866        26.74388         1.01652
C         16.05079        29.04156         0.71854
C         14.73201        29.69369         0.62343
C         18.33481         3.94797         2.52899
C         17.08222         4.47783         1.99625
C         18.37157         6.60113         1.45073
C         17.22964         5.68793         1.04647
C         18.41202         7.94465         1.05987
C         17.19468         8.63842         0.69709
C         18.47014        10.69983         0.25737
C         17.21311        10.01413         0.36559
C         18.50412        12.04638        -0.20953
C         17.28117        12.70465        -0.55786
C         18.53210        14.79419        -1.23234
C         17.32638        13.97513        -1.19880
C         18.53527        16.24738        -1.41445
C         17.37051        17.06638        -1.66250
C         18.57245        19.14558        -1.07206
C         17.34416        18.46331        -1.35270
C         18.56163        20.55823        -0.85386
C         17.31982        21.24956        -0.77280
C         18.52681        23.36504        -0.47542
C         17.29483        22.64963        -0.52369
C         18.49162        24.79173        -0.30451
C         17.32570        25.43846         0.05337
C         18.53596        27.66126        -0.02025
C         17.46103        26.82081         0.66356
C         18.48048        29.06782        -0.05934
C         17.22165        29.85502         0.21462
C         19.49206         4.63572         2.55118
C         20.82795         6.66718         1.81763
C         19.51403         6.11186         2.29669
C         20.87258         7.90922         1.27331
C         19.66300         8.65947         1.01392
C         20.90702        10.73892         0.38271
C         19.69018        10.01606         0.56182
C         20.92593        12.03628        -0.08666
C         19.72926        12.73885        -0.40302
C         20.94462        14.86848        -0.79518
C         19.72946        14.13109        -0.83226
C         20.95506        16.23345        -0.95735
C         19.75769        16.96492        -1.17415
C         20.99840        19.14779        -0.92415
C         19.78565        18.41130        -1.08490
C         21.00262        20.51171        -0.73248
C         19.79315        21.26544        -0.67322
C         20.97143        23.44495        -0.16929
C         19.77053        22.68113        -0.48891
C         20.96647        24.79653        -0.15266
C         19.75487        25.52445        -0.68086
C         20.81699        27.76777        -0.88071
C         19.71442        27.01655        -0.45458
C         20.77814        29.16164        -0.85665
C         19.60389        29.80408        -0.47134
O          1.99585        20.50037         1.59110
O         16.28279        28.45131         2.06110
O          4.82363         9.46195         1.69286
O         11.72038        20.39009         0.74402
O          9.13347        22.52573         1.15499
O         14.82902         4.46540         0.28479
O          7.97994        21.44769        -2.17378
O         16.17279        15.30791        -2.78929
O          9.95601        17.86336        -3.13345
O         11.75583         7.92102        -1.40709
O          1.29961        25.31080        -0.58146
H          0.44487        25.16102        -1.03672
O          6.52657        24.16944         2.39826
H          7.38197        23.68684         2.36950
O          2.36393        24.70741         2.90847
H          2.44707        23.73099         2.84294
O          9.95027        26.88147         2.17519
H         10.46796        26.08880         2.46379
O         19.30259         6.71329         3.64124
H         19.35751         7.68722         3.53043
O          3.04829        11.31617         1.47633
H          3.40130        10.65484         2.11989
O          6.18201        12.70231         1.52167
H          5.83333        13.63157         1.57949
O          8.40791        27.70639        -1.08318
H          9.29876        27.88880        -1.46950
O         11.04810        24.33444         2.03205
H         10.38360        23.60470         2.13299
O          3.87326        27.11141         3.58239
H          3.59186        26.17436         3.70656
O         17.61703         5.09852        -0.23842
H         16.83812         4.58297        -0.54806
O          2.73030        12.46618        -2.72132
H          2.02983        12.91751        -3.23909
O         13.76338        15.44191         0.23779
H         13.01400        16.05595         0.39874
O          4.80562        14.86140         0.78955
H          3.91822        14.61884         1.13588
O         18.00789        26.54234         1.98810
H         17.73070        27.28941         2.56775
O          3.46599        23.88173        -1.26210
H          2.71487        24.53024        -1.28404
O          0.79951         6.95466         1.48298
H          0.72947         6.16472         2.05914
O         13.55452        15.71570        -3.42621
H         13.53692        16.49225        -4.02359
O         14.77103        18.96713        -3.29092
H         15.63288        18.72711        -3.69564
O          8.42717        14.48451        -3.16647
H          9.18900        14.87672        -3.64454
O         19.83290        25.40029        -2.14947
H         19.87320        24.44196        -2.35743
O         11.09026        10.39719        -2.22252
H         11.26021         9.42599        -2.32639
O         16.79258        30.48027        -1.00667
H         17.57781        30.85771        -1.45387
O          8.87062        12.58945         1.20680
H          7.98486        12.54322         1.65454
O         13.40504        12.67531         1.30954
H         13.53098        13.65438         1.29609
O          4.80242        17.26619        -3.16396
H          5.63691        17.68924        -3.46123
O         11.03512        27.58576        -1.28405
H         11.76524        28.15849        -1.60163
O         14.67163        26.44708         2.43812
H         14.95152        27.26070         2.91802
O          1.11813        18.10567         1.16264
H          1.68197        18.58554         1.81333
O          1.52486         7.33027        -2.08254
H          1.58758         8.12688        -2.64973
H          1.25615         2.48890         0.28068
H         -0.85166         3.62939        -0.40110
H         -0.99133         6.06668        -0.56214
H         -0.98311         8.02418        -0.82030
H         -0.99254        10.43436        -0.87890
H         -0.98604        12.30067        -1.11036
H         -1.00147        14.68812        -1.49702
H         -0.95473        16.77581        -1.82307
H         -0.94539        19.08592        -0.94779
H         -1.05034        20.65253         0.34327
H         -1.00877        23.03698         0.79126
H         -1.02601        24.95341         1.31282
H         -0.88356        27.28013         2.07564
H          0.38007        29.42996         2.17328
H          3.67173         2.56584         0.71083
H          2.51744        30.67002         2.22801
H          6.09172         2.62701         1.11672
H          4.96174        30.67262         1.80921
H          8.53852         2.69908         1.52407
H          7.39412        30.68247         1.57228
H         10.96763         2.86305         2.02595
H          9.86501        30.69455         1.29625
H         13.18153         3.40988         3.02089
H         12.30615        30.74212         0.98295
H         16.00917         2.94621         3.00809
H         14.70314        30.79151         0.57698
H         18.32227         2.89942         2.86815
H         17.44829        30.66235         0.97429
H         20.41381         4.15948         2.91787
H         21.75354         6.11036         2.02580
H         21.84500         8.34556         1.00477
H         21.86593        10.25388         0.61017
H         21.90320        12.51885        -0.21982
H         21.89148        14.36341        -0.56646
H         21.91060        16.76196        -0.84933
H         21.96642        18.63100        -0.96268
H         21.96735        21.02661        -0.62549
H         21.87964        22.89888         0.12452
H         21.86983        25.35928         0.12481
H         21.71605        27.24990        -1.24270
H         21.65208        29.74851        -1.17083
H         19.55099        30.90365        -0.48270
