         671
 CSIRO Nanostructure Databank - Neutral Graphene Oxide Data Set
C          5.93552        31.68964         0.97212
C          5.93861        33.05451         0.91601
C          8.46094        27.39554         1.05310
C          7.92895        28.49962         0.44676
C          7.01646        29.53049         0.91023
C          8.07217        31.59680        -0.36260
C          7.03088        30.85403         0.51436
C          8.37330        32.97224         0.30706
C          7.12634        33.79568         0.57355
C          8.40417        35.92860         0.49701
C          7.17308        35.16676         0.62061
C          8.47824        37.26806         0.71004
C         10.57066        23.06758         0.27637
C         10.70807        24.43738         0.16823
C          9.61786        25.27408         0.61596
C         10.74716        27.33025        -0.14888
C          9.59581        26.64713         0.47980
C         10.77696        28.84266        -0.10928
C          9.53151        29.53841        -0.58778
C         10.66023        31.63226        -0.71399
C          9.41122        30.87532        -0.44949
C         10.62235        33.09850        -0.90879
C          9.36750        33.86699        -0.50720
C         10.78752        35.99698        -0.35771
C          9.68748        35.15673         0.27119
C         10.89032        37.30983        -0.01196
C          9.82097        37.94202         0.85221
C         10.83464        40.15231         0.22662
C          9.77666        39.43759         0.68242
C         10.72076        41.65003         0.05474
C         13.12250        18.84925        -0.19449
C         13.18944        20.23000        -0.42208
C         12.04609        20.96169         0.18773
C         13.25077        23.22278        -1.09613
C         11.53107        22.12812        -0.28725
C         13.22848        24.47880        -0.58309
C         12.02711        25.18886         0.00003
C         13.11363        27.31312        -0.99940
C         11.88443        26.63828        -0.46608
C         13.16473        28.82569        -1.24665
C         11.98274        29.54949        -0.66527
C         13.19213        31.67353        -0.92672
C         11.95852        30.91263        -0.73646
C         13.17950        33.04244        -1.03920
C         11.92200        33.82019        -1.11870
C         13.27294        35.97511        -0.85244
C         11.95304        35.31097        -0.97014
C         13.29105        37.42280        -0.66555
C         12.09590        38.08514        -0.29851
C         13.26221        40.23681        -0.41334
C         12.08124        39.49212        -0.16624
C         13.25574        41.68806        -0.23619
C         12.05154        42.36368         0.07460
C         13.26271        44.47345         0.28699
C         12.06903        43.74260         0.31215
C         13.22629        45.94289         0.63636
C         15.95286        14.97785         1.35186
C         15.83449        16.14516         0.40987
C         14.52373        16.90909         0.51328
C         15.94788        19.21379        -0.07604
C         14.04947        17.73742        -0.50030
C         15.64019        20.21360        -1.18791
C         14.34764        20.96321        -0.92792
C         15.68062        23.05292        -1.13774
C         14.44326        22.37194        -1.09085
C         15.63028        24.53891        -1.32542
C         14.55766        25.17886        -0.42541
C         15.71286        27.37240        -0.83544
C         14.43713        26.61351        -0.92471
C         15.68366        28.80856        -0.67717
C         14.46567        29.51862        -0.84864
C         15.66515        31.63530        -0.58884
C         14.46062        30.92933        -0.81425
C         15.61908        33.14168        -0.42617
C         14.48219        33.78088        -1.26373
C         15.70721        36.02424        -0.82890
C         14.42731        35.26793        -0.98343
C         15.67219        37.40650        -1.46748
C         14.47752        38.15833        -0.88435
C         15.71063        40.29711        -1.01806
C         14.45694        39.55255        -0.76212
C         15.70213        41.78239        -0.78585
C         14.45619        42.43088        -0.32340
C         15.71232        44.56992        -0.13765
C         14.47156        43.81319        -0.02657
C         15.66878        45.96940        -0.07236
C         14.48262        46.70510         0.26997
C         15.66697        48.89292         0.33192
C         14.48315        48.08226         0.42350
C         15.70826        50.23461         0.66132
C         18.39009        11.11226         3.00266
C         18.43937        12.36127         2.28463
C         17.28266        13.15466         2.30680
C         18.42952        15.03437         1.18310
C         17.18802        14.40919         1.62883
C         18.37454        16.34692         0.56834
C         17.05261        17.10648         0.64380
C         18.26544        19.02128        -0.53174
C         16.95742        18.26425        -0.33206
C         18.17132        20.22359        -1.51993
C         16.91771        21.00913        -1.26481
C         18.18370        23.14336        -1.32274
C         16.94359        22.38979        -1.19075
C         18.16148        24.55230        -1.25150
C         16.94749        25.24492        -1.11616
C         18.17587        27.29707        -0.46022
C         16.90984        26.64731        -0.85857
C         18.14400        28.79947        -0.14115
C         16.87904        29.52888        -0.38709
C         18.08797        31.66130         0.11254
C         16.86202        30.93820        -0.33832
C         18.10974        33.16064         0.03180
C         16.98563        33.78111        -0.77227
C         18.27119        36.01599        -0.73054
C         16.97609        35.29476        -0.61393
C         18.26307        37.40601        -0.93675
C         17.05818        38.16529        -1.47919
C         18.20009        40.28460        -0.80768
C         16.99808        39.57938        -0.94545
C         18.18650        41.73832        -0.62315
C         16.99228        42.45678        -0.54905
C         18.17981        44.59923        -0.37519
C         16.96139        43.88075        -0.34914
C         18.17214        46.02529        -0.40874
C         16.88247        46.71976        -0.41930
C         18.18994        48.86973         0.02550
C         16.89440        48.24189        -0.17216
C         18.24470        50.16837         0.79131
C         16.95354        50.96669         0.78245
C         18.29641        52.94584         1.55858
C         17.00410        52.28753         1.12525
C         18.31185        54.45696         1.39702
C         20.90986         6.81968         3.52204
C         20.83426         8.16199         3.10272
C         19.63996         8.90185         3.43917
C         20.96755        10.83273         1.76005
C         19.23080        10.02492         2.71099
C         20.88335        12.24714         1.61329
C         19.64759        12.92729         1.66985
C         20.89065        14.95992         0.85774
C         19.62417        14.31523         1.26685
C         20.83076        16.28816         0.14258
C         19.49589        16.89136        -0.00882
C         20.75888        18.88189        -0.88575
C         19.44549        18.10772        -0.88892
C         20.72169        20.33345        -1.20828
C         19.43328        21.04457        -1.38854
C         20.71016        23.15454        -1.37038
C         19.43153        22.42362        -1.40798
C         20.70607        24.55765        -1.24257
C         19.43471        25.33434        -1.49100
C         20.64695        27.38767        -0.68419
C         19.45260        26.68734        -0.82315
C         20.62440        28.81552        -0.37441
C         19.43041        29.50365        -0.20981
C         20.68142        31.70994         0.02438
C         19.41877        30.94114         0.11864
C         20.68704        33.13295         0.03591
C         19.41925        33.90257         0.03061
C         20.69907        36.01404        -0.37886
C         19.46102        35.31789        -0.42384
C         20.70921        37.43222        -0.54177
C         19.47606        38.14659        -0.79042
C         20.74448        40.32940        -0.91936
C         19.45041        39.56762        -0.80628
C         20.64067        41.74787        -0.40325
C         19.44711        42.43859        -0.44193
C         20.62022        44.62830        -0.44673
C         19.43748        43.90012        -0.38495
C         20.62508        46.06075        -0.57262
C         19.35795        46.76530        -0.51015
C         20.59240        48.95854        -0.55963
C         19.34064        48.19408        -0.33878
C         20.64978        50.40066        -0.16978
C         19.45317        51.01438         0.46501
C         20.78671        52.99468         0.98886
C         19.49613        52.29092         0.90162
C         20.76919        54.46122         1.24916
C         19.46913        55.18822         1.28691
C         20.69509        57.36974         1.19716
C         19.51557        56.63205         1.28984
C         20.73832        58.78839         1.27969
C         23.18827         3.85450         3.33341
C         22.05995         4.63268         3.59202
C         23.23590         6.62863         2.75781
C         22.05204         6.02121         3.29417
C         23.24557         8.01009         2.47083
C         22.03391         8.76470         2.53861
C         23.39985        10.90996         2.24797
C         22.10154        10.14259         2.14987
C         23.37474        12.19304         1.44257
C         22.14579        12.87832         1.26667
C         23.29508        14.71783         0.14495
C         22.12394        14.16672         0.71253
C         23.26634        16.02075        -0.51284
C         21.92752        16.62849        -0.87381
C         23.17948        18.80174        -1.36445
C         22.01234        18.12646        -1.10389
C         23.21954        20.24933        -1.51190
C         21.93408        20.98981        -1.80945
C         23.16872        23.15036        -1.38101
C         21.94010        22.45798        -1.44984
C         23.14940        24.55741        -1.20397
C         21.92811        25.26803        -1.12673
C         23.11305        27.41457        -0.67268
C         21.91577        26.71364        -0.88681
C         23.07222        28.81256        -0.32518
C         21.87712        29.53576        -0.26301
C         23.12917        31.70062        -0.04271
C         21.88519        30.98001        -0.07806
C         23.14429        33.13300         0.00570
C         21.90353        33.85053        -0.03357
C         23.13666        36.00637         0.00942
C         21.91863        35.29438        -0.12601
C         23.12096        37.42656        -0.03005
C         21.93757        38.13649        -0.35817
C         23.16631        40.25837        -0.27912
C         21.97242        39.57386        -0.44406
C         23.17610        41.72362        -0.13378
C         21.88967        42.46291        -0.06115
C         23.09101        44.52759        -0.99198
C         21.94682        43.98753        -0.12629
C         23.08930        46.02909        -1.05057
C         21.83297        46.74240        -0.73182
C         23.20088        48.88499        -0.61567
C         21.86552        48.20511        -0.81408
C         23.20228        50.21131         0.07016
C         21.97181        51.03875         0.06514
C         23.30471        52.99260         0.72908
C         22.02853        52.32364         0.53543
C         23.30812        54.44637         0.94977
C         22.01328        55.18032         0.86738
C         23.23147        57.35098         1.21785
C         21.98517        56.67932         0.92627
C         23.26524        58.80263         1.49826
C         21.94539        59.51232         1.28312
C         23.26598        61.57542         1.08398
C         22.00735        60.90585         1.16870
C         24.33975         4.42213         2.78901
C         25.55602         6.40522         1.97316
C         24.39739         5.81267         2.50436
C         25.65904         7.81171         1.79388
C         24.49390         8.65393         2.06480
C         25.87098        10.69734         1.71787
C         24.57666        10.02591         1.91325
C         25.92298        12.18305         1.32291
C         24.56284        12.77392         0.96747
C         25.67319        14.48724        -0.56645
C         24.49972        13.98313         0.23860
C         25.70227        15.98661        -0.69480
C         24.43638        16.65302        -0.87658
C         25.71477        18.78008        -1.33768
C         24.44285        17.99647        -1.57446
C         25.71145        20.22147        -1.79368
C         24.41094        20.96755        -1.53772
C         25.65874        23.10922        -1.37673
C         24.42465        22.40738        -1.49043
C         25.67162        24.51858        -1.14047
C         24.42299        25.33541        -1.39866
C         25.57056        27.33986        -0.46502
C         24.39678        26.71662        -0.77086
C         25.60815        28.75722        -0.03509
C         24.31754        29.51605         0.03216
C         25.58493        31.67167         0.02228
C         24.35125        30.98939        -0.01764
C         25.60265        33.10310         0.08791
C         24.38073        33.83001         0.09015
C         25.60518        35.96490         0.24775
C         24.40057        35.28872         0.14943
C         25.67096        37.42871         0.40798
C         24.34818        38.17995         0.28258
C         25.64104        40.30354         0.00360
C         24.41666        39.61216        -0.01139
C         25.64601        41.74950        -0.27670
C         24.44197        42.42889        -0.37300
C         25.64765        44.55403        -0.92471
C         24.40039        43.73027        -1.13398
C         25.59725        45.94932        -0.99248
C         24.38636        46.73673        -0.95067
C         25.70728        48.81314        -0.53814
C         24.45299        48.08294        -0.59347
C         25.85869        50.06211         0.37608
C         24.51505        50.82710         0.52114
C         25.75622        52.99696         1.13658
C         24.49160        52.29113         0.70568
C         25.76646        54.45283         0.67017
C         24.47112        55.14530         1.02423
C         25.74585        57.33777         1.05660
C         24.49410        56.58328         1.47827
C         25.68990        58.68613         0.80327
C         24.38629        59.42163         0.60435
C         24.43604        60.89690         0.87201
C         26.84994         8.37737         1.33935
C         28.28096        10.43828         0.83247
C         27.07092         9.81141         1.39401
C         28.26006        11.75358         0.40071
C         26.91032        12.38421         0.12257
C         28.14715        14.57112        -0.20525
C         26.98233        13.85796        -0.18915
C         28.15048        16.00148        -0.50823
C         26.90238        16.67495        -0.80418
C         28.17628        18.79997        -1.15870
C         26.89676        18.11101        -1.09064
C         28.19133        20.24323        -1.25642
C         26.93758        20.98602        -1.37326
C         28.22909        23.10948        -1.31427
C         26.90760        22.36015        -1.32038
C         28.11442        24.54821        -0.88047
C         26.87311        25.19079        -0.82893
C         28.06171        27.41488        -0.81771
C         26.86963        26.60195        -0.27898
C         28.08229        28.84073        -0.30848
C         26.86523        29.52860        -0.16908
C         28.05352        31.65972        -0.10876
C         26.83075        30.94271        -0.03815
C         28.05501        33.10303        -0.02091
C         26.85966        33.79445         0.12353
C         28.12510        36.00639         0.08514
C         26.89181        35.24809         0.53081
C         28.14020        37.40374        -0.08375
C         26.91020        38.16812         0.08989
C         28.10789        40.27857        -0.48493
C         26.88323        39.55769        -0.01314
C         28.18176        41.77111        -0.17397
C         26.88139        42.47359        -0.49372
C         28.16772        44.59881        -0.80679
C         26.89415        43.84788        -0.76608
C         28.03553        45.98990        -1.17534
C         26.82202        46.68283        -1.15386
C         28.73350        49.19030        -0.37064
C         26.79089        48.12177        -1.05799
C         28.42686        50.37533         0.30756
C         27.10353        50.98634         0.30742
C         28.22901        53.03646         1.13496
C         27.03436        52.29157         0.75771
C         28.17111        54.44987         1.32904
C         27.00330        55.20038         1.12055
C         26.97592        56.60076         1.14334
C         29.44800        12.48405         0.18639
C         30.61128        14.62806         0.03166
C         29.43991        13.89445        -0.00599
C         30.58288        16.12292         0.13723
C         29.33972        16.71937        -0.48842
C         30.65889        18.73088        -1.12332
C         29.35769        18.08846        -0.90378
C         30.66117        20.26404        -1.17806
C         29.37688        20.93028        -1.03880
C         30.64104        23.06275        -0.50498
C         29.29238        22.33730        -0.50243
C         30.60490        24.54346        -0.59068
C         29.32366        25.28234        -0.69679
C         30.61222        27.36565        -0.42436
C         29.35989        26.67059        -0.61434
C         30.56247        28.75915         0.18464
C         29.30575        29.53793        -0.19416
C         30.51186        31.70040        -0.38129
C         29.27182        30.94110        -0.16021
C         30.51953        33.14653        -0.14370
C         29.31206        33.83488        -0.02216
C         30.57901        35.95412        -0.08373
C         29.33210        35.26813         0.01185
C         30.59030        37.36260        -0.28526
C         29.38830        38.06717        -0.36853
C         30.72882        40.25580        -0.98750
C         29.38229        39.51142        -0.73391
C         30.67848        41.72041        -0.54810
C         29.38550        42.46231        -0.82908
C         30.77118        44.65821        -0.52705
C         29.39301        43.96811        -0.57439
C         30.77289        46.08793         0.01631
C         29.96271        47.04588        -0.54756
C         30.73311        48.82260         0.98995
C         29.83290        48.37621        -0.03447
C         30.62525        50.16662         1.42312
C         29.50528        50.95485         1.07435
C         29.40593        52.32958         1.41108
C         31.87729        16.76531        -0.27937
C         33.14004        18.80811        -0.85210
C         31.92764        18.06543        -0.74218
C         33.16628        20.23132        -0.93318
C         31.93106        20.96340        -0.92952
C         33.13941        23.07433        -0.83590
C         31.92386        22.35807        -0.80091
C         33.14372        24.53924        -0.98652
C         31.83820        25.28840        -0.96529
C         33.10328        27.37626        -0.18967
C         31.81243        26.70470        -0.57121
C         33.01543        28.81011        -0.71259
C         31.91187        29.56492         0.07474
C         33.04208        31.75060        -0.19493
C         31.80436        30.97950        -0.48545
C         32.99433        33.06229         0.16059
C         31.76013        33.81909         0.03094
C         33.07000        35.91430         0.18742
C         31.79928        35.21847         0.03536
C         33.10298        37.30828         0.01114
C         31.92205        38.00613        -0.62609
C         33.10496        40.16684        -0.14502
C         31.93184        39.50330        -0.43769
C         33.10734        41.62968        -0.51155
C         31.83996        42.38587        -0.23756
C         32.82483        44.35193         0.98533
C         31.84383        43.78960         0.14048
C         32.70542        45.66735         1.46363
C         31.69777        46.55418         1.01928
C         31.68985        47.89220         1.46367
C         34.37996        20.96390        -0.87428
C         35.60887        23.13378        -0.85009
C         34.39321        22.38139        -0.86174
C         35.64314        24.55200        -0.75948
C         34.39973        25.28302        -0.75664
C         35.60145        27.39350        -0.45680
C         34.37859        26.65959        -0.57303
C         35.58932        28.81178        -0.34678
C         34.34186        29.55324        -0.61195
C         35.53077        31.64491         0.23061
C         34.32509        31.03254        -0.31603
C         35.43334        32.94911         0.89079
C         34.11586        33.73157         0.92008
C         35.42924        35.89699         0.84059
C         34.24204        35.20033         0.56104
C         35.41991        37.30051         0.80698
C         34.27660        38.02197         0.35925
C         35.42657        40.15700         0.86552
C         34.28002        39.46337         0.34108
C         35.37543        41.61362         1.01878
C         34.29901        42.27596         1.52172
C         34.18321        43.76082         1.35511
C         36.84985        25.28114        -0.61616
C         38.05570        27.45020        -0.35611
C         36.85578        26.69124        -0.47846
C         38.03704        28.84136        -0.17138
C         36.77823        29.54048        -0.14407
C         37.98061        31.67979         0.37070
C         36.74438        30.95565         0.17049
C         37.97376        33.05084         0.65726
C         36.74195        33.69991         1.14259
C         37.93295        35.94327         0.90148
C         36.68621        35.21841         1.41050
C         37.89094        37.30950         0.86681
C         36.64050        38.00774         1.34387
C         36.59301        39.48744         1.17695
C         39.24506        29.61373        -0.08191
C         40.44249        31.76974         0.11235
C         39.22895        30.98704         0.12612
C         40.41313        33.12567         0.25517
C         39.17929        33.82989         0.51805
C         39.13538        35.21570         0.60363
O         10.40684        32.24773        -2.07920
O         22.60297        48.80491        -1.94090
O         33.95867        42.13048        -1.24316
O         30.74042        19.42835        -2.39468
O         20.97571        53.55419         2.37725
O         16.22719        35.86685         0.54088
O         24.95354        28.97639         1.27218
O         26.81903        10.37809         2.78628
O         30.78103        23.87807         0.72721
O         20.94735        19.88848         0.18918
O         21.22471        16.23779         1.54180
O         20.38616        50.01673        -1.56787
O         16.71580        47.67475        -1.51253
O         12.06791        22.60225        -1.50246
O         22.50911        42.00922         1.21103
O         11.80012        34.70090        -2.30285
O         29.14386        46.69131        -1.62543
O         15.60619        41.23444        -2.16689
O         13.68511        26.64011        -2.18220
O         34.50308        30.51297        -1.70881
O         27.93673        48.79858        -1.44423
O          8.40587        28.75562        -0.85883
O         19.82906        10.10425         1.42598
O         36.61530        35.37922         2.82310
O         23.65899        50.08929         1.47866
O         21.91249        55.91346        -0.38818
O         31.11245        31.27154        -1.71627
O         28.45599        39.83930        -1.83266
O         22.78787        45.16866        -2.25483
O         32.44164        24.96523        -2.24807
O         24.94422        37.87740         1.59877
O         18.53998        33.80180         1.24289
O         18.64018        31.17305         1.36184
O         18.10035        27.79454         0.92032
O         36.09696        32.92738         2.19400
O         30.45368        16.43143         1.58604
H         29.64021        15.98558         1.90719
O         23.58859        11.31567         3.64342
H         23.77617        10.50759         4.16602
O         28.72440        23.11896        -2.68402
H         28.05162        23.54792        -3.25290
O         32.10216        37.81995        -2.07352
H         31.63095        38.56305        -2.53011
O         29.21271        42.38271        -2.27504
H         29.85451        43.01517        -2.67216
O         26.42595        12.93394         2.44139
H         26.81671        12.28429         3.07164
O         30.35217        28.48560         1.60685
H         30.97297        27.76226         1.85356
O         18.08280        19.77590        -2.90775
H         18.72552        19.03029        -3.03658
O         25.81652        54.40613        -0.78467
H         25.76447        55.32452        -1.12345
O         30.91241        40.25727        -2.43422
H         30.05454        40.58990        -2.80445
O         25.39209        14.00378        -1.96093
H         26.14977        14.28720        -2.51757
O         26.35047        11.66093        -1.00303
H         25.80106        12.29537        -1.53018
O         27.85525        27.52489        -2.25611
H         28.62939        27.98567        -2.64361
O         16.96419        17.58778         2.02312
H         17.72611        18.21065         2.12173
O         27.00078        35.22953         2.00542
H         26.14961        34.89814         2.36341
O         25.78241        20.15975        -3.27006
H         25.17433        19.42981        -3.54549
O         15.37620        19.42699         1.10077
H         15.79987        18.79880         1.75856
O         23.93299        59.19838        -0.76015
H         24.47057        59.75769        -1.35810
O         14.31407        17.48099        -1.78888
H         15.01520        16.78070        -1.82598
O         19.30149        17.60221        -2.25133
H         18.62820        16.88867        -2.23896
O         31.17215        44.71173        -1.94153
H         32.08411        45.07161        -1.98162
O         24.44899        43.28629        -2.53162
H         24.04599        44.01146        -3.06669
O         14.77796        33.63531        -2.68644
H         14.01269        34.01110        -3.17757
O          8.71292        34.30638        -1.70373
H          8.62895        33.51770        -2.28867
O         21.50981        15.98850        -2.11678
H         22.13578        16.26919        -2.81845
O         36.59270        37.93151         2.80214
H         36.60316        36.92921         3.03653
O         25.71735        53.01511         2.58861
H         25.70404        52.08707         2.90451
O         32.42950        29.81278         1.39755
H         31.70885        29.60913         2.04147
O         18.42860        52.65182         2.99671
H         19.32532        52.98573         3.25109
O         24.45686        25.61597        -2.85316
H         24.48471        24.75187        -3.31687
O         19.42540        25.60015        -2.94644
H         20.27938        26.02829        -3.17125
O         32.63284        28.73244        -2.08992
H         32.97977        29.54177        -2.53368
O         12.06537        46.56828         0.07703
H         12.14397        46.54334        -0.89860
O         24.58031        56.50198         2.94899
H         24.55397        57.43683         3.27439
O         16.01482        15.61744        -0.94725
H         15.54560        14.75773        -0.99550
O         33.12745        27.40572         1.27419
H         33.44183        26.53215         1.58955
O         15.32650        33.37267         0.96369
H         15.61878        34.29060         1.19524
O         33.66067        33.74459         2.30222
H         34.47912        33.81156         2.85438
O         24.44782        17.69764        -3.03209
H         25.21563        17.10839        -3.19837
O         35.08222        44.18998         0.32217
H         34.84358        43.68869        -0.49523
O         23.68636        59.05659         2.88012
H         22.88336        59.04910         3.44298
O         15.24484        24.74466        -2.71247
H         15.97232        24.41383        -3.27981
O         21.74417        20.90645        -3.26000
H         22.52536        21.31586        -3.68824
O         33.30965        41.67353         2.24322
H         33.53118        40.72768         2.37186
O         18.47096        19.57933         0.79938
H         19.41653        19.87316         0.89282
O         15.28737        37.13062        -2.83608
H         16.02835        37.44625        -3.41285
O          7.50754        31.80473        -1.66776
H          7.50131        30.94217        -2.13337
O         12.41604        25.37615         1.43330
H         11.63462        25.75150         1.89707
O         28.84160        22.21359         0.85980
H         29.28386        22.93092         1.37450
O         13.04227        29.03294        -2.68365
H         13.43049        28.23159        -3.11166
O         10.07699        41.92531        -1.20805
H         10.64343        41.56592        -1.92186
O         10.24009        37.65856         2.24960
H         11.06939        38.15828         2.41099
O         15.04493        25.13450         0.92239
H         14.27418        25.26493         1.52316
O         27.03960        26.46217         1.15880
H         26.62984        27.23650         1.60182
O         28.38817        41.87595         1.26250
H         27.57928        41.55553         1.71532
O         18.44107        49.77768         2.19557
H         18.40284        50.61319         2.72560
O         17.41077        38.37800        -2.90201
H         17.09264        39.27130        -3.15965
O          8.95030        32.58563         1.56941
H          9.32290        33.39196         2.00397
O         10.80780        29.13426         1.34352
H         11.71354        28.94919         1.67121
O         26.09222        49.43747         1.67681
H         25.20541        49.19350         2.03666
O         22.26976        44.48725         1.20558
H         22.46263        43.69089         1.76368
O         10.24443        34.84499         1.58760
H         10.28526        35.70506         2.08127
O         17.34565        33.48727        -2.14052
H         16.53885        33.59537        -2.70583
O         20.98062        40.49009        -2.37675
H         20.15417        40.83917        -2.77454
O         15.47544        19.52916        -2.45269
H         16.35494        19.50952        -2.91022
H          5.04294        31.17748         1.36583
H          5.04179        33.61424         1.22380
H          8.05889        27.04597         2.01606
H          6.25141        29.23472         1.64888
H          6.25187        35.72771         0.84827
H          7.57142        37.85501         0.92300
H          9.64660        22.67418         0.73293
H          8.72472        24.76961         1.01693
H          8.85846        39.96368         0.98776
H         10.05105        42.07318         0.84572
H         12.28141        18.54132         0.45294
H         11.60255        20.51228         1.08938
H         11.12740        44.26809         0.52751
H         13.10460        46.01529         1.75604
H         15.03923        14.47628         1.70767
H         14.23991        17.18455         1.54123
H         13.54320        48.56989         0.72426
H         14.77537        50.75425         0.93104
H         17.63674        11.01684         3.79930
H         16.36773        12.73878         2.75564
H         16.07153        52.86551         1.22336
H         17.34901        54.98724         1.46656
H         20.02439         6.35663         3.98248
H         19.05244         8.56149         4.30502
H         18.57072        57.17165         1.45713
H         19.78821        59.34515         1.27117
H         23.16845         2.77882         3.55838
H         21.15697         4.17063         4.01615
H         23.28202        62.67134         1.18378
H         21.07894        61.49420         1.13462
H         25.22026         3.79668         2.58381
H         26.43611         5.77844         1.76448
H         26.62911        59.23717         0.62712
H         25.40406        61.41976         0.89803
H         27.65491         7.72724         0.96549
H         29.23961         9.90701         0.94137
H         29.09240        54.96805         1.63788
H         27.92454        57.15862         1.20134
H         30.41461        11.98145         0.34520
H         31.57004        14.10883         0.18209
H         31.40064        50.59371         2.07502
H         30.26277        52.84396         1.87016
H         32.81033        16.24990        -0.00382
H         34.09186        18.27795        -0.69652
H         33.46653        46.05177         2.15782
H         32.42785        48.20494         2.21619
H         35.33483        20.41828        -0.85376
H         36.56241        22.58469        -0.87013
H         36.16835        42.21278         0.54864
H         34.52041        44.25444         2.30537
H         37.80544        24.73591        -0.59487
H         39.02283        26.92753        -0.40484
H         38.77196        37.89722         0.56428
H         37.43837        40.06306         1.58317
H         40.20929        29.09850        -0.20925
H         41.39700        31.25194        -0.06367
H         41.34313        33.70998         0.19413
H         40.06062        35.79030         0.43808
