         424
 CSIRO Nanostructure Databank - Neutral Graphene Oxide Data Set
C          1.15841         3.57319        -0.20286
C          0.22202         4.13423        -1.02975
C          1.15149         6.38005        -0.75836
C          0.16923         5.52638        -1.29428
C          1.18155         7.81912        -0.99267
C          0.07278         8.54317        -1.49488
C          1.28707        10.66957        -1.35539
C          0.10393         9.92448        -1.61364
C          1.29286        12.13626        -1.25715
C          0.08578        12.88251        -1.29931
C          1.23342        14.92456        -0.58998
C          0.06130        14.22808        -0.98664
C          1.20994        16.30399        -0.16543
C          0.00181        17.04645        -0.13016
C          1.14834        19.11220         0.52331
C         -0.00966        18.40568         0.15605
C          1.15135        20.53628         0.59589
C         -0.07925        21.27568         0.49939
C          1.12126        23.40051         0.51210
C         -0.09565        22.63857         0.49246
C          1.10674        24.79629         0.41846
C         -0.09415        25.57820         0.22864
C          1.07659        27.70384         0.82881
C         -0.11965        26.93122         0.33198
C          1.09409        29.19300         0.52763
C         -0.09977        29.91475         0.39377
C          1.11243        32.02769         0.37926
C         -0.09038        31.30127         0.27847
C          1.11423        33.49666         0.29454
C         -0.08192        34.24913         0.31424
C          1.14371        36.34398         0.12972
C         -0.07367        35.63653         0.22922
C          1.18418        37.78980        -0.02420
C          3.56904         3.72325         0.04984
C          2.23607         4.35892         0.48670
C          3.19235         6.67765         0.49904
C          2.15338         5.82908         0.09039
C          3.48893         7.91320        -0.07647
C          2.38157         8.54754        -0.73669
C          3.75215        10.61279        -0.96413
C          2.44522         9.94101        -1.01794
C          3.76871        12.13858        -0.98114
C          2.47851        12.83687        -0.94500
C          3.68522        14.89373        -0.21984
C          2.46816        14.21658        -0.59160
C          3.64002        16.25598         0.17573
C          2.42078        16.94117         0.22806
C          3.67506        19.08296         0.70733
C          2.38215        18.31071         0.87797
C          3.62829        20.53774         1.09966
C          2.36448        21.27156         0.71476
C          3.62009        23.40326         0.72865
C          2.37211        22.67879         0.64609
C          3.64854        24.81354         0.60817
C          2.38545        25.52028         0.33660
C          3.62739        27.74139         0.65071
C          2.36406        27.02505         0.40589
C          3.59901        29.15832         0.62227
C          2.32323        29.89707         0.56421
C          3.62569        32.05116         0.77337
C          2.32045        31.31338         0.53743
C          3.61980        33.48543         0.28061
C          2.34112        34.19136         0.18017
C          3.63677        36.30977         0.08639
C          2.34224        35.60223         0.10492
C          3.65226        37.81435        -0.05204
C          2.34333        38.48200        -0.15673
C          6.02476         3.65835        -0.47972
C          4.86529         4.28178         0.06469
C          6.18301         6.36958         0.38672
C          5.09905         5.57299         0.65797
C          6.06269         7.87779         0.59871
C          4.91408         8.42562        -0.31235
C          6.13648        10.62122        -0.36214
C          4.94585         9.93276        -0.44350
C          6.18800        12.07157        -0.41895
C          4.97968        12.81382        -0.50021
C          6.17071        14.88831         0.05944
C          4.93408        14.18546        -0.19160
C          6.17077        16.27208         0.34233
C          4.87367        16.91466         0.76240
C          6.14209        19.13531         0.64485
C          4.87022        18.42307         0.64731
C          6.14042        20.56204         0.68116
C          4.89043        21.29107         0.78460
C          6.14987        23.41210         1.03627
C          4.85783        22.67154         0.80193
C          6.10469        24.89619         0.75763
C          4.85972        25.56661         0.67763
C          6.07442        27.73632         0.70978
C          4.84996        27.02115         0.66287
C          6.05735        29.15747         0.55906
C          4.81371        29.84312         0.47822
C          6.09026        31.98242         0.15821
C          4.76489        31.28975         0.07343
C          6.11117        33.46445         0.39457
C          4.80194        34.12568         0.05191
C          6.10940        36.27896        -0.35491
C          4.80406        35.53730        -0.48112
C          6.09453        37.70353        -0.55462
C          4.89118        38.42544        -0.53871
C          8.50746         3.63655        -0.72555
C          7.29100         4.30662        -0.43730
C          8.59019         6.38487        -0.04425
C          7.35875         5.70912        -0.08980
C          8.62199         7.79667         0.50801
C          7.36282         8.57431         0.22980
C          8.64702        10.58166        -0.54984
C          7.37900         9.87827        -0.14225
C          8.65983        12.06468        -0.27891
C          7.41779        12.76793        -0.27904
C          8.62298        14.92145        -0.06386
C          7.40745        14.19884        -0.10818
C          8.62071        16.31145         0.15213
C          7.38177        16.99456         0.36896
C          8.60981        19.14852         0.49048
C          7.37356        18.43752         0.52517
C          8.59475        20.58029         0.54807
C          7.36099        21.26334         0.57803
C          8.60577        23.47104         0.69007
C          7.32473        22.75400         0.32684
C          8.56719        24.85319         0.83259
C          7.32935        25.58322         0.75294
C          8.54033        27.73969         0.73027
C          7.34797        27.03908         0.73562
C          8.55907        29.23833         0.87225
C          7.28035        29.87349         0.40568
C          8.52342        31.92721        -0.38968
C          7.27272        31.26567         0.13297
C          8.53771        33.43157        -0.26081
C          7.34712        34.14339        -0.14554
C          8.55893        36.23646        -0.63626
C          7.32564        35.56488        -0.34614
C          8.54813        37.67685        -0.81794
C          7.34312        38.37232        -0.77101
C         10.99433         3.59514        -0.77379
C          9.75734         4.28519        -0.60239
C         11.05221         6.35682        -0.11231
C          9.78849         5.68423        -0.25867
C         11.09554         7.77616         0.05850
C          9.88234         8.51988         0.11470
C         11.13475        10.60642        -0.13108
C          9.89961         9.88733        -0.09782
C         11.12622        12.04501        -0.18520
C          9.88056        12.74231        -0.24476
C         11.14951        14.92611        -0.07648
C          9.88773        14.22912        -0.49991
C         11.12138        16.33808         0.09756
C          9.87538        17.03982         0.17803
C         11.09525        19.17549         0.33766
C          9.85917        18.44512         0.34535
C         11.06340        20.58875         0.52286
C          9.83414        21.31956         0.61188
C         11.06192        23.47823         0.92794
C          9.83316        22.74107         0.75299
C         11.09410        24.87043         1.02861
C          9.80126        25.61762         1.25602
C         11.05808        27.83886         1.14839
C          9.85965        27.01769         0.61784
C         11.06393        29.23547         0.55734
C          9.82566        29.90563         0.37139
C         11.03103        31.96060        -0.22127
C          9.81483        31.25095        -0.01158
C         11.01890        33.36995        -0.52616
C          9.76931        34.10323        -0.54144
C         10.98696        36.18002        -1.27624
C          9.75268        35.50486        -0.74168
C         11.00561        37.67256        -1.03540
C          9.79496        38.36232        -0.95026
C         13.47222         3.54914        -0.79410
C         12.23626         4.22637        -0.57993
C         13.49154         6.33061        -0.11538
C         12.25566         5.63806        -0.24066
C         13.54303         7.72216        -0.05698
C         12.33317         8.46734        -0.02549
C         13.60211        10.61344        -0.00042
C         12.35173         9.89837        -0.04730
C         13.58420        12.04676         0.03931
C         12.35593        12.75855        -0.07652
C         13.59998        14.89708         0.16724
C         12.35313        14.20322        -0.01389
C         13.59727        16.34900         0.18150
C         12.36024        17.05672         0.18103
C         13.58702        19.21171         0.11957
C         12.35250        18.48806         0.21854
C         13.49078        20.64997         0.19027
C         12.29426        21.29303         0.54666
C         13.62822        23.48435         0.96125
C         12.31456        22.70856         0.95980
C         13.56843        24.95624         0.85582
C         12.32027        25.63172         0.94932
C         13.53772        27.75478         0.69502
C         12.34037        27.06361         0.89711
C         13.55810        29.26467         0.80950
C         12.26844        29.90958         0.35215
C         13.51100        31.97581        -0.22729
C         12.26878        31.27657        -0.03647
C         13.49587        33.35776        -0.52163
C         12.25049        34.06615        -0.65372
C         13.47023        36.18823        -0.94127
C         12.26935        35.47920        -0.89948
C         13.47154        37.64136        -1.03608
C         12.23647        38.34415        -1.04182
C         15.95110         3.53350        -0.81785
C         14.72335         4.15818        -0.55563
C         16.03877         6.24762         0.21628
C         14.72805         5.52978         0.00650
C         16.07549         7.73031         0.16196
C         14.84062         8.44580        -0.31736
C         16.05766        10.60708         0.13544
C         14.82062         9.91231         0.02486
C         16.05506        12.03043         0.25298
C         14.81862        12.75105         0.20361
C         16.04707        14.90990         0.69236
C         14.79629        14.17202         0.28954
C         16.11735        16.29006         0.04474
C         14.81828        17.06875         0.17294
C         16.13972        19.12735         0.27004
C         14.83823        18.47606         0.09704
C         16.33846        20.45730        -0.04664
C         14.56825        21.54645        -0.15861
C         16.05005        23.56514        -0.01401
C         14.76225        22.81630         0.29794
C         16.04807        24.86078         0.81174
C         14.76961        25.64874         0.67418
C         16.02614        27.76795         0.42258
C         14.77970        27.06040         0.58647
C         16.01119        29.18215         0.18881
C         14.79417        29.90358         0.21724
C         15.97205        31.93518        -0.55480
C         14.76030        31.26404        -0.16450
C         15.93777        33.33229        -0.82968
C         14.73614        34.04815        -0.72738
C         15.92655        36.21391        -0.85622
C         14.73244        35.49845        -0.85131
C         15.93098        37.64796        -0.97678
C         14.68493        38.33273        -1.04543
C         18.45298         3.54238        -0.95054
C         17.20501         4.19494        -0.61823
C         18.53580         6.15425         0.13357
C         17.25909         5.50354        -0.12044
C         18.54495         7.70550         0.37904
C         17.26185         8.42905         0.21788
C         18.53686        10.56770         0.17075
C         17.29113         9.87544         0.14278
C         18.54513        12.00202         0.25449
C         17.31133        12.73325         0.33748
C         18.55728        14.84633         0.50839
C         17.33091        14.13911         0.45731
C         18.56523        16.28941         0.64080
C         17.35131        17.01085         0.54448
C         18.56660        19.10836         0.89621
C         17.33844        18.40695         0.67577
C         18.56638        20.56184         1.10667
C         17.27920        21.33709         0.61625
C         18.49285        23.46705         0.69849
C         17.32360        22.78144         0.38674
C         18.51598        24.92924         0.60252
C         17.30341        25.64782         0.55793
C         18.50987        27.76351         0.25743
C         17.26688        27.05438         0.41077
C         18.50164        29.16014        -0.02323
C         17.23708        29.86273        -0.13699
C         18.46681        31.87379        -0.92021
C         17.20201        31.20890        -0.53460
C         18.46257        33.35223        -1.26661
C         17.14576        34.10898        -1.34774
C         18.45253        36.24889        -1.04549
C         17.22353        35.46697        -0.64381
C         18.39937        37.66339        -1.15061
C         17.14411        38.34518        -1.06398
C         19.66095         4.18301        -0.84399
C         20.94961         6.25818        -0.32577
C         19.76426         5.52273        -0.34323
C         20.96327         7.64952        -0.10033
C         19.80268         8.40548         0.10410
C         20.98539        10.59190         0.07262
C         19.77910         9.85121         0.09760
C         20.99054        11.96780         0.17740
C         19.78267        12.70589         0.29301
C         21.00371        14.87046         0.58300
C         19.79212        14.13875         0.44856
C         21.00960        16.23720         0.76183
C         19.80280        16.98793         0.78428
C         21.00484        19.20021         0.99419
C         19.80001        18.42339         0.90159
C         21.00546        20.57874         1.02194
C         19.80008        21.34028         1.05784
C         20.93724        23.53488         1.01533
C         19.74224        22.76029         0.95948
C         20.94957        24.89851         0.81566
C         19.75049        25.63248         0.59555
C         20.95330        27.79554         0.29982
C         19.74451        27.06055         0.39159
C         20.94549        29.15161         0.04732
C         19.73315        29.85881        -0.14455
C         20.89648        32.02359        -0.55875
C         19.74285        31.26248        -0.50736
C         20.87908        33.42047        -0.81872
C         19.71526        34.11115        -1.08223
C         20.85442        36.31871        -1.43240
C         19.68075        35.57272        -1.18123
C         20.80451        37.71114        -1.52710
C         19.59542        38.38493        -1.38791
O          3.88595        37.11294         1.26030
O         18.51678        32.34163        -2.33063
O         13.11360        22.91320         2.19472
O          4.08139         6.13353         1.45000
O         15.29858         5.65116         1.35784
O         18.60726         6.76164         1.47221
O          4.00917        11.36786        -2.20866
O         15.53908        21.03196        -1.04730
O         17.53021        20.99446         2.01765
O          2.38666        26.37904        -0.89633
O         16.31871        16.06977        -1.38279
H         16.33827        16.94477        -1.82365
O          2.29572        18.05970         2.33573
H          3.09153        17.50933         2.56123
O         16.10015        24.41953         2.20034
H         16.03570        25.20927         2.77632
O          8.68018        10.47760        -2.02354
H          9.50049        10.92158        -2.32793
O         16.89802        34.37472        -2.74817
H         17.19743        33.57615        -3.23996
O          1.07329        27.60115         2.29236
H          0.34363        28.16009         2.63314
O          5.23872         7.90439        -1.63803
H          4.75717         8.43956        -2.30442
O          4.76118        16.67197         2.22613
H          4.88067        15.70846         2.37115
O         17.34415        35.17889         0.78338
H         17.36769        36.03440         1.26110
O         10.12941        26.84306        -0.79972
H          9.34944        26.40944        -1.20606
O          8.40787        31.70584        -1.85128
H          9.19703        32.11419        -2.26903
O          3.57868        20.50206         2.58106
H          2.97355        19.75279         2.81916
O          7.11662        22.92132        -1.10612
H          7.83784        22.45004        -1.57296
O         10.89205        36.02433        -2.74468
H         11.67145        36.47771        -3.13186
O          9.65780        25.78609         2.70942
H          9.54435        24.89330         3.10087
O          9.88156        14.33975        -1.98288
H          9.03481        13.95302        -2.29503
O          8.69071         7.66209         1.97072
H          7.77155         7.74166         2.31863
O         15.94987        15.13581         2.13119
H         15.90588        14.26219         2.57305
O          4.41363        31.31142        -1.35586
H          5.13042        30.85364        -1.84511
O          2.07383         4.22274         1.92674
H          2.79183         4.74979         2.34223
O          6.20988        33.58594         1.87695
H          7.05632        33.17207         2.15389
O         14.97239         8.40989        -1.80414
H         14.24275         8.95558        -2.16967
O          5.80202         8.16523         1.98974
H          5.07307         7.56363         2.27427
O          6.41900        23.28244         2.46759
H          5.58301        23.44839         2.95176
O          8.58129        29.48903         2.33412
H          9.40355        29.04757         2.67648
O         10.95307        28.05567         2.58930
H         10.67669        27.19373         2.99782
O          3.86319        32.05348         2.19825
H          4.64228        32.64149         2.36614
O         13.62181        29.53437         2.25631
H         12.80286        29.15107         2.65052
O          4.53568        35.45510        -1.92401
H          5.20667        34.86160        -2.32286
O         16.10984        23.88572        -1.41642
H         16.03038        23.04167        -1.91204
H          1.12771         2.49026        -0.01014
H         -0.53760         3.48759        -1.49400
H         -0.62399         5.92224        -1.94236
H         -0.86166         8.01136        -1.72344
H         -0.81187        10.44414        -1.92690
H         -0.85734        12.38595        -1.56455
H         -0.90197        14.75375        -1.02563
H         -0.94405        16.56951        -0.41750
H         -0.95933        18.93999         0.01934
H         -1.03733        20.74122         0.47310
H         -1.06062        23.16077         0.45100
H         -1.02773        25.05637        -0.02846
H         -1.07097        27.45513         0.16014
H         -1.06562        29.39155         0.36533
H         -1.04582        31.82225         0.13279
H         -1.04991        33.73927         0.41285
H         -1.02333        36.19062         0.24749
H          0.22250        38.32088        -0.08957
H          3.47602         2.76438        -0.48874
H          2.32338        39.56253        -0.36468
H          5.95263         2.63971        -0.88865
H          4.89666        39.49576        -0.79483
H          8.48198         2.56639        -0.98075
H          7.34404        39.46571        -0.89306
H         10.97285         2.52980        -1.04973
H          9.80026        39.46277        -0.92209
H         13.44851         2.50740        -1.14959
H         12.25148        39.44341        -0.98808
H         15.95714         2.50975        -1.22093
H         14.68188        39.43042        -1.11757
H         18.41369         2.51181        -1.33199
H         17.12921        39.44077        -1.16119
H         20.58345         3.66615        -1.14728
H         21.89002         5.76365        -0.60976
H         21.92733         8.16294        -0.21939
H         21.94764        10.06829         0.00036
H         21.95688        12.48830         0.17192
H         21.96736        14.34476         0.56356
H         21.97475        16.74855         0.87614
H         21.97461        18.68483         0.99401
H         21.97446        21.09689         1.02434
H         21.89158        23.03214         1.22317
H         21.91320        25.42278         0.86332
H         21.91946        27.28651         0.41150
H         21.90581        29.67729        -0.03387
H         21.86622        31.57376        -0.30643
H         21.82719        33.96672        -0.71510
H         21.81527        35.80466        -1.57031
H         21.72725        38.27565        -1.72141
H         19.55641        39.48041        -1.47085
