         234
 CSIRO Nanostructure Databank - Neutral Graphene Oxide Data Set
C          1.28834         2.05167        -0.40276
C          1.24343         3.44378        -0.24735
C          2.49699         1.37815        -0.29818
C          2.38980         4.17179         0.10704
C          1.10957         6.37846         0.44664
C          1.10562         7.73723         0.58975
C          2.35209         5.68459        -0.03253
C          2.30924         8.51440         0.52154
C          1.03493        10.75613         0.25291
C          1.05636        12.07045        -0.03802
C          2.26715         9.99452         0.58753
C          2.30743        12.82280        -0.31792
C          1.10041        15.13875        -0.45263
C          1.16724        16.47500        -0.25804
C          2.31386        14.30782        -0.64311
C          2.43402        17.18999        -0.17391
C          2.46682        18.62231        -0.01679
C          3.67769         2.08269         0.04232
C          3.59894         3.47794         0.32005
C          4.94999         1.42820        -0.02861
C          4.80763         4.18256         0.81377
C          3.58384         6.42186         0.42132
C          3.55324         7.81167         0.53837
C          4.81316         5.68779         0.77448
C          4.85714         8.52189         0.57903
C          3.57287        10.74998         0.47064
C          3.59513        12.14980        -0.00871
C          4.88225        10.00806         0.42464
C          4.79807        12.82634        -0.02411
C          3.66393        15.04806        -0.71883
C          3.62288        16.49057        -0.26104
C          4.76879        14.31063         0.02413
C          4.89101        17.17514        -0.18917
C          3.64822        19.31236        -0.05356
C          4.91184        18.63236        -0.16302
C          6.15160         2.08132         0.24093
C          6.12674         3.41036         0.96564
C          7.39710         1.46433         0.03695
C          7.37940         4.24159         0.71459
C          6.11171         6.38899         0.62026
C          6.08114         7.73154         0.29257
C          7.34042         5.64593         0.69440
C          7.31433         8.45103        -0.08580
C          5.96978        10.68634        -0.41449
C          6.07091        12.14599        -0.03738
C          7.29916         9.93901        -0.38637
C          7.28687        12.80495         0.05160
C          6.04797        15.03946         0.30242
C          6.08037        16.46284        -0.09970
C          7.32105        14.21984         0.60732
C          7.34783        17.14221        -0.52158
C          6.12386        19.31727        -0.13092
C          7.37455        18.63594        -0.25241
C          8.62314         2.12938         0.32027
C          8.60118         3.51669         0.66588
C          9.85906         1.46098         0.09420
C          9.88802         4.17939         0.95570
C          8.60121         6.42977         0.73050
C          8.60628         7.82383         0.21793
C          9.89351         5.68662         0.87487
C          9.76995         8.53391        -0.00196
C          8.55855        10.69511        -0.21178
C          8.54221        12.09863        -0.07019
C          9.78503         9.96749        -0.21781
C          9.79447        12.83347        -0.14294
C          8.60837        14.99178         0.27992
C          8.60308        16.45684        -0.04426
C          9.82215        14.22177        -0.05601
C          9.87146        17.15525        -0.38495
C          8.59073        19.28827        -0.26201
C          9.85535        18.59021        -0.36423
C         11.13628         2.02039         0.29184
C         11.19502         3.41680         0.84763
C         12.26271         1.28694        -0.16300
C         12.43423         4.25783         0.68639
C         11.10651         6.33266         0.28112
C         11.05265         7.79586        -0.07035
C         12.38730         5.62474         0.46016
C         12.28961         8.56522        -0.17742
C         11.02070        10.67217        -0.35324
C         11.03509        12.09797        -0.37895
C         12.27084         9.94085        -0.42994
C         12.27660        12.78829        -0.47106
C         10.99870        14.94644        -0.67429
C         11.05853        16.43905        -0.43496
C         12.30922        14.23526        -0.45880
C         12.30210        17.13444        -0.43439
C         11.07089        19.27508        -0.40934
C         12.31007        18.57230        -0.41207
C         13.61638         1.59462         0.14880
C         13.71487         3.64547         0.77348
C         14.80047         1.29735        -0.50784
C         14.89325         4.22179         0.22934
C         13.63882         6.37388         0.31486
C         13.57084         7.87795         0.01935
C         14.86784         5.62190        -0.00594
C         14.71368         8.43703        -0.70679
C         13.50161        10.65440        -0.65294
C         13.49590        12.04244        -0.60060
C         14.76464         9.91074        -1.08349
C         14.79030        12.77144        -0.63413
C         13.48851        14.96189        -0.43929
C         13.52995        16.41069        -0.38671
C         14.78261        14.25312        -0.50824
C         14.75845        17.11227        -0.27576
C         13.54391        19.25524        -0.38289
C         14.77204        18.55501        -0.29959
C         16.04116         2.03688        -0.31136
C         16.07046         3.47193        -0.10656
C         17.25628         1.37834        -0.53908
C         17.28029         4.20705        -0.36407
C         15.99813         6.28475        -0.51132
C         15.75680         7.61616        -1.01247
C         17.28585         5.63555        -0.53183
C         17.61914         8.65987        -0.88104
C         16.01437        10.54235        -0.40961
C         15.98948        12.01730        -0.14197
C         17.35510         9.89915        -0.35379
C         17.28033        12.71853         0.08274
C         15.98444        14.95173         0.03720
C         16.01170        16.42572        -0.12353
C         17.25299        14.19349         0.24321
C         17.21306        17.09733        -0.00723
C         16.00461        19.23890        -0.19742
C         17.23821        18.55109        -0.02340
C         18.49887         2.06053        -0.50168
C         18.51212         3.49007        -0.46195
C         19.73307         1.35844        -0.54393
C         19.75330         4.19034        -0.50845
C         18.56163         6.33481        -0.62495
C         18.68435         7.79412        -0.50626
C         19.76515         5.61808        -0.55559
C         19.83014         8.40545         0.02534
C         18.40644        10.54882         0.45246
C         18.41103        12.03358         0.42305
C         19.74919         9.77838         0.57379
C         19.64554        12.76783         0.82286
C         18.55439        14.90072         0.16885
C         18.50595        16.36001        -0.08891
C         19.70930        14.22044         0.45284
C         19.78357        17.13413         0.05020
C         18.43361        19.24058         0.20556
C         19.65677        18.51352         0.68011
C         20.93801         2.04148        -0.48165
C         20.97208         3.45161        -0.45528
C         22.22217         4.16760        -0.31194
C         21.08762         6.36074        -0.71517
C         21.09007         7.74690        -0.07618
C         22.27939         5.51733        -0.34546
C         22.23613         8.49085         0.13725
C         21.00100        10.54203         0.71981
C         20.93700        11.99724         1.04789
C         22.18321         9.88046         0.47468
C         22.19718        12.78796         1.06850
C         21.04487        14.87053         0.36458
C         21.08763        16.40190         0.21520
C         22.22285        14.11336         0.85044
C         22.24310        17.21680         0.59869
C         20.93534        19.28754         0.58078
C         22.14395        18.61141         0.65704
O          8.72005        16.03837         1.35188
O         13.82512         7.39728         1.37893
O          9.33431         6.34755         2.03806
O         16.74617         8.14242        -1.85794
O         13.77634         2.38611         1.32798
O         10.55810         3.61763         2.14536
O         15.66412        11.06528         0.91723
O         16.38194        14.55768         1.39776
O         18.79923         9.90872         1.69033
O          2.23333        13.33145        -1.73114
O         20.07692        12.39694         2.17447
O          2.91806        10.60077         1.77111
O          5.01929        14.82805         1.35658
O          7.33539         8.97237        -1.49268
O         15.04257        13.60142        -1.81461
O          4.57694         4.95557         2.04748
O         10.94879         6.72003        -1.13667
O         19.23466        16.91622        -1.26637
O          5.20543         9.43584         1.71185
O         21.34133        15.50391        -0.92333
O          6.22002         3.03123         2.36781
H          5.89174         3.80052         2.88942
O          7.35664        13.98653         2.03365
H          7.58124        14.84351         2.46137
O         14.87819        10.06474        -2.51045
H         15.59837         9.46441        -2.81179
O         21.22028         6.63312        -2.15688
H         21.22185         5.76782        -2.61855
O         19.45063        18.21682         2.12032
H         19.37761        19.07248         2.59366
O          5.45353        10.65523        -1.77351
H          5.96711         9.96198        -2.25502
O          2.35613         5.85978        -1.51892
H          2.18222         6.80932        -1.69735
O          7.39516        16.98492        -1.98178
H          6.56500        17.35468        -2.35138
O         10.75164        14.81683        -2.13039
H         11.56711        15.10409        -2.59504
O          4.05057        15.10405        -2.11727
H          3.60642        14.34276        -2.56207
H          0.37281         1.50340        -0.66452
H          0.29687         3.97141        -0.42879
H          2.55282         0.29782        -0.49334
H          0.17462         5.81245         0.56287
H          0.16207         8.24784         0.83259
H          0.06495        10.24220         0.32979
H          0.10740        12.58579        -0.24594
H          0.12222        14.63890        -0.49194
H          0.24054        17.05578        -0.13872
H          1.51328        19.16302         0.07252
H          4.97673         0.39003        -0.39511
H          3.64806        20.41063         0.00510
H          7.42870         0.44554        -0.37947
H          6.12722        20.40733         0.02108
H          9.80910         0.42620        -0.27837
H          8.61362        20.38686        -0.18933
H         12.06751         0.41277        -0.80363
H         11.08059        20.37516        -0.39638
H         14.80908         0.50244        -1.26865
H         13.55170        20.35545        -0.38604
H         17.25511         0.28983        -0.69604
H         16.00555        20.33938        -0.19941
H         19.72261         0.25996        -0.58637
H         18.42665        20.34158         0.22553
H         21.88567         1.48405        -0.45895
H         23.13500         3.57927        -0.13253
H         23.25071         6.01941        -0.22858
H         23.22771         8.04372        -0.01774
H         23.13979        10.41610         0.55083
H         23.12564        12.27449         1.35940
H         23.18081        14.65088         0.90228
H         23.23313        16.74379         0.65216
H         20.91068        20.38685         0.59112
H         23.07347        19.19287         0.75355
