         324
 CSIRO Nanostructure Databank - Neutral Graphene Oxide Data Set
C          0.97373         3.65640        -0.28803
C         -0.22045         4.20547         0.03040
C          0.44388         6.55771         0.22232
C         -0.34361         5.53200         0.64144
C          0.78540         7.81711         0.89152
C          0.20766         8.10576         2.14240
C          1.50408        10.15626         2.25240
C          0.54337         9.28341         2.79070
C          1.33915        12.46654         2.05006
C          0.13925        13.18676         2.14516
C          1.15244        14.97248         0.83873
C          0.02193        14.38955         1.45270
C          1.12036        16.36478         0.38769
C         -0.02899        17.08225         0.11394
C          1.16118        19.13686        -0.58609
C         -0.00596        18.41522        -0.39388
C          1.23161        20.44421        -1.23384
C          0.09590        20.98222        -1.86021
C          1.30757        23.01339        -2.33771
C          0.15078        22.24237        -2.45183
C          1.24468        25.25528        -1.94757
C          0.03931        25.94253        -1.74368
C          1.17171        27.42027        -0.19372
C         -0.01125        26.98356        -0.82180
C          1.17215        28.56334         0.67637
C          3.54481         3.58689        -0.22293
C          2.27870         4.37317        -0.00620
C          3.52950         6.40422        -0.85320
C          2.33936         5.70587        -0.71281
C          3.54709         7.81863        -0.74857
C          1.80345         8.69194         0.41436
C          3.53655        10.55678         0.69936
C          2.29250         9.82533         1.10811
C          3.62461        12.01470         1.14371
C          2.39927        12.88436         1.24244
C          3.62870        14.91604         0.51041
C          2.37377        14.23572         0.80514
C          3.63600        16.29191         0.26210
C          2.40789        17.07353         0.33522
C          3.67644        19.20477        -0.49396
C          2.42112        18.56161        -0.10881
C          3.69306        20.55518        -0.86957
C          2.45346        21.19865        -1.23199
C          3.69966        23.35244        -1.55418
C          2.48756        22.55152        -1.69557
C          3.67775        24.81341        -1.41394
C          2.43081        25.56304        -1.25820
C          3.62747        27.32752        -0.01971
C          2.40595        26.75198        -0.46578
C          3.60831        28.52346         0.76404
C          2.34148        29.08106         1.15606
C          6.02294         3.61740        -0.16543
C          4.76849         4.22571        -0.41390
C          6.03937         6.44216        -0.87147
C          4.78559         5.63705        -0.87002
C          5.94010         7.91251        -0.68261
C          4.71657         8.57634        -0.43506
C          5.86715        10.85115        -0.32659
C          4.63913         9.97704         0.06524
C          6.09235        12.08401         0.49853
C          4.87889        12.78189         0.92308
C          6.11034        14.90633         0.61738
C          4.86206        14.22913         0.67149
C          6.15574        16.30639         0.29932
C          4.89583        16.94917        -0.09010
C          6.18483        19.14325        -0.34636
C          4.91384        18.42386        -0.46153
C          6.17313        20.55987        -0.66958
C          4.93434        21.27336        -0.97851
C          6.20186        23.44409        -1.23301
C          4.91508        22.66868        -1.25778
C          6.15845        24.90116        -1.73987
C          4.87330        25.52359        -1.19302
C          6.04636        27.51430        -0.21738
C          4.86375        26.78639        -0.49599
C          6.04131        28.68853         0.58605
C          4.81119        29.16509         1.09181
C          8.45343         3.71956         0.24030
C          7.24590         4.35336        -0.13125
C          8.49427         6.45176        -0.48216
C          7.28629         5.75601        -0.45722
C          8.49227         7.86798        -0.94560
C          7.20067         8.64254        -0.84802
C          8.54538        10.67390        -0.15610
C          7.20512        10.11703        -0.60628
C          8.57714        12.04554         0.45700
C          7.29481        12.77325         0.58400
C          8.58446        14.93871         1.10093
C          7.31804        14.18307         0.78185
C          8.61217        16.33731         0.49343
C          7.36467        17.00748         0.20714
C          8.61244        19.16030         0.09920
C          7.34824        18.43290        -0.05885
C          8.63749        20.60796        -0.32216
C          7.38975        21.19739        -0.82880
C          8.79505        23.08399        -1.64086
C          7.45790        22.61522        -1.20405
C          8.67334        25.29591        -1.64926
C          7.40563        25.71462        -1.36348
C          8.59458        27.82123        -0.50362
C          7.30613        27.07749        -0.82375
C          8.51940        28.92862         0.48171
C          7.26888        29.35182         0.92800
C         10.91740         3.76076         0.53220
C          9.68975         4.41012         0.23216
C         10.96467         6.46675        -0.30143
C          9.70823         5.79322        -0.14740
C         11.00343         7.78715        -0.81345
C          9.78855         8.61862        -1.06361
C         10.99548        10.80639        -0.51024
C          9.81226        10.08898        -0.70878
C         11.08287        12.01960         0.36248
C          9.84266        12.81808         0.54072
C         11.12600        14.87839         1.15088
C          9.86162        14.14591         0.84140
C         11.04353        16.35357         0.92565
C          9.83391        17.00262         0.42384
C         11.08471        19.16006         0.17514
C          9.89358        18.43083         0.16746
C         11.15964        20.56440        -0.11460
C          9.96414        21.13041        -0.83193
C         11.11750        23.48719        -0.76334
C          9.95293        22.61398        -1.10404
C         11.18479        24.98708        -1.10750
C          9.91817        25.83234        -1.12451
C         11.13680        27.92875        -0.44197
C          9.88662        27.10529        -0.61856
C         11.00026        29.04890         0.57006
C          9.72372        29.50409         0.95610
C         13.38910         3.74427         0.61753
C         12.16465         4.41109         0.37624
C         13.44602         6.42053        -0.32648
C         12.19491         5.77835        -0.08580
C         13.46721         7.72150        -0.89103
C         12.23258         8.25661        -1.26405
C         13.52716        10.79850        -0.68243
C         12.25039        10.37995        -1.05470
C         13.65041        12.06563        -0.04460
C         12.44102        12.67164         0.58670
C         13.79865        14.81413         0.80847
C         12.49272        14.12181         1.03526
C         14.00998        16.16709         1.22360
C         12.08996        17.18090         1.22318
C         13.57754        19.23439         0.72480
C         12.36010        18.39569         0.37096
C         13.59246        20.64928         0.30565
C         12.35597        21.28607        -0.05808
C         13.62852        23.51057        -0.10517
C         12.33886        22.77726        -0.20573
C         13.62153        24.90329        -0.14828
C         12.43679        25.67787        -0.61933
C         13.51590        27.74690         0.20807
C         12.38412        27.10694        -0.23568
C         13.46116        29.14317         0.68596
C         12.16629        29.66812         1.01566
C         15.86310         3.67468         0.58287
C         14.63999         4.37003         0.38575
C         15.92156         6.34088        -0.38043
C         14.68019         5.72147        -0.09336
C         16.00209         7.73033        -0.93121
C         14.71703         8.48223        -1.18128
C         16.07357        10.68760        -0.89594
C         14.73491        10.01906        -1.14287
C         16.09736        12.09861        -0.44454
C         14.87964        12.75212        -0.08446
C         16.11429        14.87777        -0.02984
C         14.91110        14.15671         0.23851
C         16.05621        16.34313        -0.05402
C         14.97265        16.99823         0.68124
C         16.11621        19.24534         0.40449
C         14.92806        18.47698         0.80849
C         16.06689        20.61559         0.28211
C         14.81688        21.34795         0.27043
C         16.07250        23.49400         0.25382
C         14.84756        22.78626         0.12050
C         16.05962        24.93003         0.40325
C         14.80372        25.63554         0.22239
C         15.92875        27.78076         0.80232
C         14.75115        27.02139         0.36964
C         15.92900        29.24775         0.42869
C         14.62339        29.85841         0.86431
C         18.34735         3.58836         0.53704
C         17.08903         4.28143         0.29849
C         18.39201         6.26434        -0.52886
C         17.10856         5.62385        -0.18210
C         18.43965         7.74195        -0.50176
C         17.27762         8.47093        -0.68818
C         18.53777        10.60042        -0.50402
C         17.30558         9.90362        -0.67843
C         18.56656        12.03969        -0.48577
C         17.32755        12.77342        -0.38810
C         18.57276        14.94570        -0.31827
C         17.33789        14.21637        -0.25306
C         18.62001        16.34407        -0.29958
C         17.36011        17.10110        -0.22272
C         18.69924        19.20427         0.12917
C         17.39927        18.49669         0.28872
C         18.63378        20.66918        -0.13611
C         17.30807        21.36420        -0.06356
C         18.55527        23.47858         0.31615
C         17.32830        22.81322         0.19813
C         18.52616        24.89431         0.73257
C         17.24304        25.60820         0.68737
C         18.49411        27.83887         0.83432
C         17.25059        27.05127         0.96057
C         18.40630        29.27598         0.90603
C         17.17122        29.94615         0.88881
C         19.55240         4.14897         0.27799
C         20.93342         6.25337        -0.27428
C         19.66367         5.48350        -0.34407
C         20.94627         7.59230        -0.22227
C         19.69315         8.40445         0.01725
C         20.96313        10.57394        -0.28049
C         19.76342         9.87457        -0.33621
C         20.98921        11.97770        -0.33082
C         19.80938        12.71734        -0.39305
C         21.01078        14.93628        -0.80716
C         19.87711        14.20654        -0.12721
C         21.02000        16.28737        -0.84905
C         19.86467        17.07110        -0.43589
C         21.07341        19.28505        -0.46576
C         19.90697        18.47780        -0.33226
C         21.07886        20.66170        -0.25183
C         19.89661        21.42747        -0.05710
C         21.00382        23.66268        -0.01804
C         19.82733        22.83097         0.11589
C         20.99522        25.01044         0.15845
C         19.82365        25.71285         0.70293
C         20.91123        27.98881         0.64027
C         19.74077        27.20657         0.68453
C         20.84445        29.38416         0.78586
C         19.62580        30.02232         0.93470
O         18.26002        18.73134         1.45956
O          8.59685        10.82710         1.30578
O          7.17803         9.63421        -1.96831
O          5.49767         5.89273        -2.14185
O         12.20977         9.41035        -2.05817
O         11.84904        11.77543         1.59027
O          4.91106        17.38224        -1.52502
O          4.47957        12.28428         2.31430
O          1.17333         6.35720        -0.98069
O          2.46430        18.17738         1.31392
O         15.46025        10.58661        -2.26152
O          8.57055        20.26769         1.08493
O         11.84564        14.37941         2.31052
O         11.31713        23.36368         0.69845
O          1.55218        11.37204         2.90630
O          8.83984        24.18808        -2.48045
O         12.16665        25.39649        -2.09307
O         19.31840        25.14798         1.95367
O         19.05609         5.60578        -1.68133
O         14.23169        18.98865         1.98770
O          9.10343         8.11721        -2.26065
O         15.47022         7.89957        -2.28860
O          7.88565        28.08331        -1.75761
O         16.42259        27.46046         2.12437
O         16.44298        16.95345        -1.34590
O         13.06993        16.72349         2.09728
O         17.87378        20.97279        -1.37232
O          2.32825         8.47615        -0.87551
O          6.96015        23.38187         0.01068
O          1.26548        24.27044        -2.94987
O          2.27211         4.75063         1.43416
H          2.27168         3.91396         1.94665
O         20.16289        14.29042         1.31867
H         20.21779        15.24219         1.55195
O         15.96418        29.26631        -1.04827
H         15.79178        30.18609        -1.34051
O          5.44519        11.41658        -1.61010
H          5.76804        10.79595        -2.30890
O          8.56052        15.17117         2.54751
H          8.63833        14.30194         2.99535
O         12.70701        17.84409        -0.96037
H         11.87485        17.59355        -1.41640
O         10.05716        20.52615        -2.18184
H         10.87160        20.86185        -2.61384
O         19.52807         8.38169         1.49265
H         18.90216         9.09829         1.73232
O         11.29976        28.58795        -1.74287
H         11.47404        27.88456        -2.40579
O          6.04625        24.84564        -3.17864
H          6.07986        25.76099        -3.52646
H          1.01427         2.63991        -0.70789
H         -1.13912         3.60745        -0.08759
H         -1.02438         5.65252         1.49690
H         -0.55156         7.43657         2.56798
H          0.03064         9.57976         3.71420
H         -0.68085        12.81530         2.77274
H         -0.92089        14.95083         1.50488
H         -1.00975        16.59193         0.19756
H         -0.97171        18.85229        -0.68445
H         -0.83598        20.40448        -1.91261
H         -0.71705        22.65056        -2.98509
H         -0.85195        25.64899        -2.31309
H         -0.95713        27.50851        -0.62777
H          0.20935        29.03018         0.93026
H          3.54629         2.53670         0.10993
H          2.33503        29.97070         1.80216
H          6.04653         2.55898         0.13377
H          4.79298        30.07968         1.70240
H          8.43798         2.65200         0.50578
H          7.21511        30.20026         1.62723
H         10.90055         2.70602         0.84523
H          9.65901        30.33426         1.67697
H         13.37200         2.70084         0.96633
H         12.10108        30.58073         1.62753
H         15.83908         2.63742         0.94873
H         14.59250        30.88786         1.25256
H         18.29591         2.58530         0.98666
H         17.16989        31.04734         0.92675
H         20.47942         3.62059         0.54730
H         21.87782         5.69189        -0.35427
H         21.91436         8.11374        -0.21456
H         21.91390        10.04098        -0.14700
H         21.95497        12.49161        -0.23086
H         21.88781        14.37199        -1.15616
H         21.89535        16.81607        -1.25361
H         22.03250        18.79908        -0.69623
H         22.04927        21.17788        -0.28330
H         21.92925        23.18797        -0.37418
H         21.88944        25.59210        -0.10753
H         21.89382        27.50765         0.54486
H         21.77434        29.96977         0.78603
H         19.57925        31.11636         1.03197
