         349
 CSIRO Nanostructure Databank - Neutral Graphene Oxide Data Set
C          2.93669         3.01155        -5.70014
C          2.46835         3.86327        -4.65856
C          4.19075         2.44279        -5.75315
C          3.19571         4.40521        -3.59642
C          1.38163         6.69623        -1.93840
C          1.31010         7.99368        -1.54205
C          2.62008         5.95079        -1.87582
C          2.43776         8.60362        -0.89402
C          1.13688        10.63698        -0.32814
C          1.08285        11.78307         0.40706
C          2.36707         9.89278        -0.39651
C          2.29048        12.44672         0.85638
C          1.83816        15.65539         2.45356
C          2.07988        17.01057         2.40077
C          2.59704        14.76360         1.66094
C          3.06541        17.49530         1.51862
C          3.19146        18.93386         1.38204
C          5.22518         2.93952        -4.89122
C          4.60950         4.55240        -3.52158
C          6.12751         2.24434        -4.12556
C          5.45320         4.75387        -2.41868
C          3.78537         6.44116        -1.34259
C          3.56900         7.67667        -0.45167
C          5.07182         5.58894        -1.19651
C          4.84725         8.43911        -0.18821
C          3.52004        10.43219         0.41807
C          3.54192        11.94259         0.59981
C          4.82078         9.77369         0.06918
C          4.80627        12.76987         0.82023
C          3.74306        15.17638         0.94250
C          3.90616        16.58615         0.82224
C          4.64860        14.19605         0.15625
C          4.93168        17.16936        -0.08531
C          4.10797        19.50909         0.57793
C          5.04349        18.67233        -0.19727
C          6.99326         2.87124        -3.15705
C          6.73320         4.09344        -2.42021
C          8.16290         2.13321        -2.88324
C          7.76599         4.56595        -1.53290
C          6.31232         6.39707        -0.75313
C          6.02231         7.55483         0.18335
C          7.56074         5.81655        -0.78042
C          7.26487         8.35969         0.59473
C          6.05366        10.58891         0.08519
C          6.04766        12.03461         0.30744
C          7.35459         9.82766         0.29099
C          7.29456        12.70855         0.26745
C          6.04350        14.85329        -0.11153
C          6.15129        16.33295        -0.36531
C          7.29840        14.12763         0.21358
C          7.53085        17.03150        -0.42942
C          6.36681        19.27963        -0.41439
C          7.52610        18.54255        -0.30793
C          9.19891         2.64034        -2.09075
C          8.98882         3.89831        -1.44117
C         10.45730         1.95326        -2.01741
C         10.22844         4.62028        -0.97668
C          8.70589         6.33695         0.00905
C          8.56267         7.64320         0.71743
C          9.94058         5.75323        -0.01169
C          9.80134         8.45493         0.99660
C          8.58294        10.59590         0.58574
C          8.54456        11.97891         0.43331
C          9.82047         9.91048         0.80721
C          9.83077        12.70459         0.46693
C          8.47685        14.88081         0.64487
C          8.55005        16.41090         0.51559
C          9.80927        14.21361         0.59355
C          9.85199        17.06087         0.60177
C          8.78425        19.17453        -0.16470
C          9.93607        18.47573         0.30031
C         11.50460         2.41887        -1.22873
C         11.27262         3.65022        -0.43698
C         12.80176         1.85976        -1.23049
C         12.37304         4.15201         0.43804
C         11.04947         6.19774         0.96478
C         11.09570         7.71525         1.14627
C         12.41052         5.67855         0.47299
C         12.35438         8.46958         1.04961
C         11.04779        10.59200         0.95856
C         11.07286        12.01891         0.87378
C         12.30473         9.87714         1.08744
C         12.25269        12.74790         1.11005
C         11.03421        14.91791         1.01304
C         11.00929        16.34781         1.02325
C         12.24498        14.20295         1.15894
C         12.22403        17.05310         1.26956
C         11.06396        19.19054         0.69511
C         12.17987        18.55606         1.45904
C         13.87730         2.27141        -0.40638
C         13.60694         3.27875         0.75345
C         15.11321         1.64109        -0.64314
C         14.81324         4.14551         1.15613
C         13.60001         6.32152         1.13420
C         13.59393         7.74026         1.17898
C         14.79095         5.59997         1.31830
C         14.80807         8.44150         1.36599
C         13.51429        10.63742         1.19863
C         13.49436        12.03303         1.28871
C         14.84060         9.92122         1.05696
C         14.74882        12.77782         1.41382
C         13.47100        14.92525         1.34535
C         13.42368        16.35123         1.40566
C         14.73598        14.22684         1.40121
C         14.67287        17.13220         1.55864
C         13.45603        19.21919         1.04017
C         14.66529        18.54777         1.09801
C         16.24382         1.74074         0.22202
C         15.93529         3.47854         1.53872
C         17.58829         1.63044        -0.05430
C         17.23644         4.08335         1.86633
C         15.96671         6.31312         1.71199
C         15.97801         7.72644         1.66554
C         17.21742         5.59100         2.05626
C         17.23178         8.46935         2.12470
C         15.93520        10.63326         1.88004
C         15.95778        12.10236         1.53968
C         17.22967         9.91092         1.70193
C         17.22329        12.77910         1.39184
C         15.96310        14.91780         1.45356
C         15.98165        16.39026         1.55612
C         17.22174        14.23980         1.36435
C         17.19588        17.11204         1.14121
C         15.88769        19.18301         0.79014
C         17.13525        18.50041         0.82170
C         18.63611         2.19369         0.80375
C         18.50141         3.39988         1.52299
C         19.89091         1.49907         0.81038
C         19.72649         4.06534         2.12975
C         18.51443         6.30483         1.94949
C         18.50063         7.71873         1.80178
C         19.71263         5.59126         1.98615
C         19.68803         8.40390         1.58647
C         18.32525        10.54323         0.89461
C         18.38757        12.05458         1.16292
C         19.67379         9.80410         1.08259
C         19.62595        12.78880         0.83549
C         18.42542        14.96392         1.22450
C         18.41777        16.41078         1.06826
C         19.67623        14.27176         1.00241
C         19.60774        17.11824         0.76536
C         18.32096        19.15860         0.41064
C         19.54809        18.48152         0.38214
C         21.07965         2.07251         1.28530
C         21.03998         3.56279         1.48909
C         22.31635         1.42854         1.30280
C         22.26108         4.12820         2.23634
C         20.95448         6.30974         1.97889
C         20.93701         7.72416         1.74009
C         22.21515         5.62889         2.10081
C         22.15288         8.46373         1.89808
C         20.97778        10.54346         1.01732
C         20.93358        12.03398         0.79330
C         22.28845         9.87713         1.41252
C         22.16926        12.83747         1.04688
C         20.84788        14.96060         0.76818
C         20.94325        16.45706         0.96476
C         22.12120        14.23837         0.51937
C         22.09040        17.10894         0.20448
C         20.72168        19.10316        -0.19916
C         21.90227        18.42735        -0.35836
C         23.55689         2.13512         1.49390
C         23.57130         3.53473         1.77718
C         24.78144         1.45726         1.37476
C         24.78227         4.25076         1.90302
C         23.39306         6.34726         2.27271
C         23.23787         7.74960         2.40110
C         24.75977         5.72250         2.24098
C         25.14876         8.84345         2.14100
C         23.57512        10.68517         1.38121
C         23.48597        12.18341         1.24722
C         24.94755        10.15079         1.68056
C         24.74142        12.92859         0.95922
C         23.39238        15.00103         0.33951
C         23.31647        16.47233         0.12319
C         24.73643        14.37457         0.60060
C         24.44312        17.06030        -0.57553
C         22.95229        18.96838        -1.30809
C         24.37176        18.53913        -0.90473
C         26.00470         2.15478         1.48235
C         26.00330         3.56462         1.71399
C         27.23622         1.45574         1.32260
C         27.33251         4.28882         1.82627
C         26.06098         6.53292         1.94058
C         26.15781         8.01089         1.68004
C         27.15576         5.71242         1.30577
C         27.20968         8.64711         0.92170
C         26.06261        10.81114         1.14255
C         25.92065        12.25138         1.10888
C         27.22847        10.08565         0.72957
C         27.50232        13.09650        -0.06074
C         25.87755        15.02947        -0.22714
C         25.54297        16.30367        -0.91758
C         27.05679        14.26343        -0.73930
C         26.32849        16.71211        -2.10977
C         25.40772        18.98577        -1.90424
C         26.33149        18.15584        -2.45817
C         28.44822         2.14730         1.10056
C         28.46515         3.56489         1.13225
C         29.63848         1.43312         0.73909
C         29.59795         4.26476         0.63970
C         28.30143         6.40139         0.62308
C         28.31006         7.86757         0.48098
C         29.56959         5.67623         0.42229
C         29.38569         8.47344        -0.19985
C         28.25925        10.67375        -0.12620
C         28.23029        12.05934        -0.64734
C         29.25465         9.83636        -0.63489
C         29.00592        12.45889        -1.78939
C         27.72971        14.58769        -1.92311
C         27.35534        15.79742        -2.70122
C         28.82080        13.76590        -2.35141
C         28.30829        16.32594        -3.78372
C         27.41878        18.64711        -3.28035
C         28.41440        17.84559        -3.77420
C         30.77910         2.10893         0.38258
C         30.77653         3.53063         0.28477
C         31.91992         4.23895        -0.17374
C         30.69535         6.35627        -0.09787
C         30.59910         7.74875        -0.45496
C         31.88737         5.60347        -0.34921
C         31.71857         8.48979        -0.98525
C         30.13460        10.19167        -1.81728
C         30.02880        11.61608        -2.29690
C         31.54206         9.70527        -1.56720
C         30.86351        12.08006        -3.30851
C         29.73747        14.24365        -3.34395
C         29.65803        15.63402        -3.78707
C         30.74356        13.38819        -3.80285
C         30.74079        16.29374        -4.30173
C         29.56413        18.42890        -4.42379
C         30.67118        17.67642        -4.69013
O          6.01955        15.41354        -1.49688
O         20.45491         9.84704        -0.16183
O         15.38344        16.91094         2.82221
O         27.13957         5.78398        -0.14414
O         22.71031        14.34691        -0.82085
O         23.13395         9.95318         0.18510
O         11.17525         3.52343         1.00845
O          8.15022        15.77716         1.76883
O          4.42611        17.86570        -1.27272
O          6.90011        10.14028        -1.06080
O          7.70173         7.87370         1.90103
O         22.71154        12.75073         2.40041
O         25.70303         6.11943         3.29297
O         10.00208        13.57182        -0.71714
O         25.97449        15.77638        -3.21969
O         10.33305         8.11311         2.34103
O          1.98735        13.54086         1.62808
O         25.73307        15.20391         1.23127
O          5.26518         4.34424        -4.75429
O         17.18261         4.70131         3.22688
O         27.10619        12.96331         1.27158
O          2.44053         4.69716        -2.47291
O         24.23691         8.41285         3.09620
O         15.93516         2.08857         1.55211
O         20.26166        12.37416        -0.44300
O          4.81145         4.68027        -0.10009
H          4.66640         5.24729         0.69668
O          3.26471         9.90053         1.80005
H          2.38220        10.23546         2.07429
O         15.48911        10.52993         3.27619
H         15.95852        11.21665         3.79548
O         19.67752         3.74807         3.54846
H         18.79743         4.07279         3.87104
O         27.71488         4.34871         3.22938
H         26.99297         4.82776         3.70588
O         27.72393        15.98919        -5.07289
H         26.74575        15.99321        -4.94248
O         13.29538         2.47552         1.90433
H         12.31196         2.40796         1.94933
O          5.51959         6.88819         1.38677
H          6.28112         6.84059         2.01848
O         22.65127        18.48688        -2.62496
H         22.67668        17.50723        -2.61183
O          5.00258        13.00436         2.23880
H          4.99583        12.13835         2.69790
O          8.09923        16.79115        -1.74163
H          7.53427        16.11325        -2.18658
O         12.54254         6.16591        -0.89504
H         13.32709         5.74954        -1.30779
O         22.26112         3.80960         3.64802
H         21.33635         3.88432         3.99228
O          3.05998         7.16228         0.82201
H          3.13826         7.90554         1.46887
O         15.22299        10.05252        -0.33393
H         14.52153         9.65262        -0.88829
O          4.01568        13.94579        -1.10488
H          4.34139        14.62904        -1.73854
O         17.98638        10.42177        -0.51452
H         18.82060        10.60637        -1.01005
O         17.17326         8.43393         3.59476
H         16.38290         8.97258         3.84873
O         21.28705        16.65303         2.38742
H         20.49321        16.43543         2.92087
O         24.64117        19.24171         0.34244
H         25.46145        18.87341         0.73201
O         10.78145         5.62429         2.24879
H         10.28291         6.29771         2.77011
O         10.74740         5.17483        -2.22658
H         10.03836         5.71509        -2.63395
O         21.07620         4.07335         0.12796
H         21.18806         5.04786         0.14459
O         11.95943        18.80471         2.89894
H         12.72273        18.41962         3.38075
O         29.61970         9.39046        -2.93994
H         29.64349         8.44855        -2.66504
H          2.16643         2.62260        -6.38332
H          1.37444         3.92533        -4.55532
H          4.36674         1.55710        -6.38035
H          0.52268         6.20680        -2.41690
H          0.39462         8.57097        -1.72762
H          0.22040        10.24100        -0.78463
H          0.13048        12.31042         0.55262
H          1.01016        15.24938         3.04901
H          1.46938        17.71565         2.98120
H          2.50843        19.55643         1.97875
H          6.24749         1.16322        -4.28769
H          4.22328        20.60178         0.53631
H          8.31179         1.17413        -3.40160
H          6.43158        20.37898        -0.38123
H         10.59125         1.04288        -2.62105
H          8.83358        20.27202        -0.23334
H         12.98990         1.02440        -1.92467
H         11.08374        20.28215         0.55793
H         15.21957         1.05814        -1.57271
H         13.43302        20.27469         0.73021
H         17.91745         1.18647        -1.00593
H         15.87116        20.23897         0.48240
H         19.90836         0.46956         0.42197
H         18.27127        20.21076         0.09457
H         22.36631         0.35092         1.08238
H         20.60445        20.10353        -0.64266
H         24.79193         0.37470         1.18044
H         22.90083        20.08378        -1.34464
H         27.21742         0.35944         1.23289
H         25.44494        20.06289        -2.12965
H         29.62285         0.33386         0.75794
H         27.48681        19.73700        -3.42658
H         31.69574         1.55909         0.12446
H         32.83353         3.67586        -0.41372
H         32.78295         6.11384        -0.72784
H         32.73174         8.07163        -0.89811
H         32.40141        10.26867        -1.95871
H         31.64081        11.42063        -3.71927
H         31.43967        13.72896        -4.58135
H         31.71240        15.78486        -4.38366
H         29.55903        19.50947        -4.63124
H         31.55846        18.13931        -5.14430
