         598
 CSIRO Nanostructure Databank - Neutral Graphene Oxide Data Set
C         22.88890        69.76131         0.55588
C         22.82838        71.18325         0.74487
C         21.62752        71.80655         1.17007
C         22.79408        73.89666         1.58183
C         21.61954        73.14874         1.55847
C         25.28704        65.54199         0.52154
C         25.41970        66.95688         0.46852
C         24.20419        67.67655         0.47607
C         25.28750        69.83822        -0.05910
C         24.08799        69.08235         0.33219
C         25.24089        71.41243         0.13700
C         24.00957        71.97217         0.68287
C         25.24592        74.03668         1.20574
C         24.02173        73.31572         1.16013
C         27.77937        61.19981        -0.04571
C         27.58663        62.58926        -0.16573
C         26.33767        63.22713         0.22559
C         28.06384        65.63120        -0.13511
C         26.31913        64.56837         0.59885
C         28.01757        67.10492        -0.11425
C         26.68900        67.75058         0.30170
C         27.75048        69.98997        -0.13369
C         26.59092        69.20390        -0.02642
C         27.72429        71.41728         0.14112
C         26.50904        72.08679         0.37691
C         27.71178        74.11838         1.06406
C         26.48840        73.43126         0.88983
C         30.38832        57.08355        -0.30795
C         30.29006        58.45668        -0.56578
C         29.11502        59.15052        -0.24399
C         30.02518        61.29913        -1.08351
C         28.98061        60.55090        -0.43332
C         29.67093        62.58941        -1.46482
C         28.57826        63.32084        -0.91309
C         30.35030        65.98373        -1.59764
C         28.52631        64.75565        -1.09035
C         30.28497        67.26225        -1.14055
C         28.94717        67.96631        -0.99493
C         30.20667        70.05398        -0.19320
C         29.02993        69.36286        -0.39374
C         30.19450        71.42162         0.28525
C         28.95443        72.10892         0.38706
C         30.18466        74.13054         1.09912
C         28.95160        73.47604         0.83453
C         33.08092        52.86015        -0.00379
C         32.95336        54.33255         0.40131
C         31.69204        55.03278        -0.04011
C         32.84639        57.17278        -0.59480
C         31.63559        56.38582        -0.32621
C         32.77475        58.54244        -0.97066
C         31.45628        59.18109        -1.14780
C         32.67020        61.45082        -1.43716
C         31.36634        60.68647        -1.42774
C         32.69654        62.91654        -1.40870
C         31.60124        63.72058        -1.72164
C         32.73814        65.75370        -0.69543
C         31.49701        65.10528        -1.28081
C         32.78457        67.22317        -0.61310
C         31.55498        67.97724        -0.87132
C         32.72982        69.96508         0.17152
C         31.52648        69.43260        -0.46813
C         32.61569        71.26176         0.84330
C         31.39174        72.06228         0.67001
C         32.66674        74.10059         1.31796
C         31.41258        73.44093         1.05064
C         35.23036        48.51873         0.67814
C         34.52050        49.77985         0.60776
C         34.59942        50.78488        -0.34156
C         35.51657        52.99653        -0.04197
C         34.28624        52.21630        -0.04993
C         35.48911        54.45884        -0.15362
C         34.19248        55.16920         0.05609
C         35.27607        57.22129        -0.88881
C         34.09116        56.53380        -0.50911
C         35.21410        58.62165        -1.15284
C         33.95155        59.29836        -1.17508
C         35.17337        61.43561        -1.37661
C         33.89638        60.74264        -1.35143
C         35.17746        62.91205        -1.49301
C         33.93451        63.64196        -1.18320
C         35.19542        65.77650        -0.81198
C         33.98399        65.00850        -0.90004
C         35.20452        67.10261        -0.34420
C         33.96519        67.85814        -0.28443
C         35.14947        69.84726         0.61401
C         33.95984        69.26298         0.13217
C         35.17931        71.22210         1.14751
C         33.88230        71.95494         1.28909
C         35.14528        74.09928         1.45488
C         33.89489        73.43255         1.34674
C         38.02478        44.67830         1.18679
C         37.86451        45.91384         0.57448
C         36.70182        46.66542         0.81635
C         37.72690        48.62862        -0.19156
C         36.52687        48.00426         0.38829
C         37.71330        50.07647        -0.45779
C         36.95681        50.99644         0.44145
C         37.88806        53.01364        -0.67664
C         36.73904        52.36470        -0.10418
C         37.77748        54.38851        -1.06363
C         36.61612        55.12086        -0.82679
C         37.69049        57.24995        -1.41236
C         36.52624        56.53085        -1.05992
C         37.68282        58.66054        -1.41751
C         36.43776        59.33917        -1.32579
C         37.70421        61.47551        -1.24895
C         36.39482        60.76595        -1.38372
C         37.72493        62.96316        -1.22686
C         36.45382        63.68372        -1.52437
C         37.75026        65.83069        -0.85933
C         36.45181        65.15305        -1.22934
C         37.65688        67.09526        -0.11499
C         36.43677        67.73247         0.04486
C         37.65307        69.80340         0.74286
C         36.37521        69.00582         0.86277
C         37.68157        71.19765         0.75066
C         36.48579        71.99805         1.17056
C         37.54669        74.32670         1.63758
C         36.43078        73.50461         1.34971
C         40.69217        41.33584         3.41704
C         40.58637        42.18350         2.25603
C         39.40361        42.92063         2.08985
C         40.32811        44.33562         0.27937
C         39.25281        43.95529         1.13859
C         40.17305        45.58818        -0.54942
C         38.91201        46.43511        -0.33364
C         40.07398        48.59083        -1.01442
C         38.87937        47.91673        -0.54156
C         40.16207        49.97622        -1.19718
C         38.93936        50.77832        -1.04987
C         40.22782        52.87639        -1.46466
C         39.03029        52.25561        -1.00000
C         40.22965        54.29943        -1.68185
C         38.93495        55.01336        -1.70509
C         40.19596        57.24296        -1.77568
C         38.90803        56.52805        -1.82081
C         40.17617        58.62604        -1.70843
C         38.93957        59.38176        -1.59620
C         40.15370        61.56448        -2.06560
C         38.97951        60.76061        -1.50104
C         40.24485        63.01798        -1.58188
C         38.99931        63.72501        -1.27027
C         40.20160        65.63826        -0.29614
C         39.00503        65.03588        -0.83578
C         40.10734        66.98225         0.27166
C         38.89244        67.69862         0.32584
C         40.11031        69.75633         0.96393
C         38.88556        69.08327         0.67621
C         40.12756        71.18082         1.06884
C         38.95643        71.82194         0.68976
C         40.12113        74.32302         1.91992
C         38.91818        73.99207         1.35041
C         43.64515        37.85767         5.42331
C         43.38922        38.77741         4.38040
C         42.20062        39.58442         4.53209
C         43.09984        40.57712         2.01970
C         41.58480        40.25542         3.47163
C         42.94977        41.83392         1.40167
C         41.66202        42.48174         1.33673
C         42.65618        43.77671        -0.45495
C         41.51444        43.54007         0.38522
C         42.52009        45.74181        -1.46571
C         41.35495        46.36139        -1.05533
C         42.62849        48.51043        -1.64984
C         41.25744        47.78494        -1.37393
C         42.65580        49.97431        -1.51522
C         41.40993        50.67772        -1.42827
C         42.66497        52.75983        -1.97359
C         41.40614        52.09313        -1.59606
C         42.66301        54.28799        -2.11299
C         41.40063        55.02173        -1.88611
C         42.65745        57.11176        -1.70761
C         41.42070        56.46491        -1.80608
C         42.70063        58.57114        -1.48852
C         41.43882        59.37307        -1.54716
C         42.75782        61.48903        -1.31756
C         41.57884        60.82545        -2.06412
C         42.77010        62.85529        -0.89214
C         41.53882        63.67586        -1.06909
C         42.57085        65.41583         0.42334
C         41.38681        64.90397        -0.27891
C         42.52038        66.85672         0.84242
C         41.29110        67.64593         0.69253
C         42.58977        69.70121         1.32298
C         41.31222        69.00611         1.01044
C         42.62662        71.18636         1.52783
C         41.31285        71.93463         1.58239
C         42.68312        74.06137         1.66385
C         41.35171        73.44783         1.80692
C         46.34387        35.71657         6.89371
C         45.10556        36.32903         6.70747
C         45.92580        37.38337         4.65481
C         44.88243        37.17228         5.58431
C         45.65343        38.11833         3.37197
C         44.41348        38.99031         3.38432
C         45.50273        40.54229         1.72155
C         44.34426        40.01263         2.39740
C         45.36400        41.68124         0.90825
C         44.12845        42.39293         0.81033
C         45.12657        44.10423        -0.82746
C         43.96952        43.46819        -0.11976
C         45.05679        45.49214        -1.49057
C         43.82003        46.35038        -1.52192
C         45.14262        48.46359        -1.50628
C         43.88165        47.74280        -1.52336
C         45.14541        49.89663        -1.52516
C         43.90419        50.64184        -1.54346
C         45.15030        52.77898        -1.69378
C         43.94623        52.07008        -1.69331
C         45.17525        54.23675        -1.82461
C         43.93740        54.99674        -1.94621
C         45.13140        57.11143        -1.57224
C         43.89511        56.38805        -1.79165
C         45.16187        58.45260        -1.29789
C         43.99947        59.31005        -1.75883
C         45.09141        61.27788        -0.60728
C         43.92744        60.72142        -1.19853
C         45.08980        62.63745        -0.15831
C         43.92701        63.44200        -0.34730
C         45.01634        65.32635         1.15943
C         43.96175        64.87840         0.11687
C         45.02235        66.71842         0.45836
C         43.80227        67.58386         0.63484
C         45.11870        69.79687         0.88783
C         43.83444        69.06856         0.79729
C         45.13013        71.21354         1.15487
C         43.89973        71.91248         1.35180
C         45.13552        74.02174         1.34528
C         43.88441        73.33970         1.46523
C         47.39311        35.96344         6.01040
C         48.30333        37.19063         4.06424
C         47.20890        36.82044         4.89007
C         48.17633        38.24900         3.12281
C         46.88995        38.81026         2.84001
C         47.95120        40.43638         1.34701
C         46.79007        39.90593         1.95313
C         47.84303        41.50326         0.34490
C         46.48969        42.13903         0.06595
C         47.63564        44.18474        -0.75392
C         46.46782        43.52098        -0.48595
C         47.57057        45.69309        -0.93184
C         46.38592        46.22837        -1.78379
C         47.58862        48.43868        -1.55494
C         46.35415        47.74441        -1.57419
C         47.59128        49.85253        -1.49015
C         46.38501        50.59515        -1.53872
C         47.61126        52.75294        -1.52506
C         46.41045        52.06053        -1.57402
C         47.66767        54.25536        -1.38998
C         46.37434        54.92179        -1.75379
C         47.67045        57.14438        -1.90289
C         46.35018        56.38529        -2.09088
C         47.73773        58.37876        -1.02881
C         46.37047        59.05482        -0.71321
C         47.30641        61.08371         0.32624
C         46.24293        60.47714        -0.31950
C         47.48505        62.48514         0.40896
C         46.29633        63.22288         0.32883
C         47.61064        65.34737         0.61752
C         46.33216        64.60699         0.84276
C         47.58343        66.85013         0.64460
C         46.27538        67.56717         0.57825
C         47.51891        69.76031         0.64581
C         46.27648        69.08044         0.55859
C         47.56803        71.10465         1.07599
C         46.38947        71.90660         1.22844
C         47.52864        74.24005         1.10550
C         46.38600        73.37435         1.28473
C         49.33171        38.79543         2.51648
C         50.39714        40.47966         1.04536
C         49.24392        39.89905         1.63965
C         50.32192        41.67806         0.28737
C         49.04714        42.26534         0.00657
C         50.12582        44.18127        -1.02751
C         48.94284        43.54110        -0.58359
C         50.03234        45.49695        -1.67886
C         48.83959        46.31870        -1.46181
C         50.10045        48.37615        -1.92263
C         48.85655        47.69349        -1.66857
C         50.17176        49.82975        -1.65833
C         48.88516        50.55147        -1.32060
C         50.18502        52.75945        -1.70479
C         48.89826        52.04727        -1.35500
C         50.08310        54.19043        -2.10462
C         48.91509        54.88697        -2.02774
C         50.21271        57.10477        -1.82351
C         48.94743        56.37594        -2.06190
C         50.22103        58.46446        -1.61758
C         49.06370        59.07761        -0.95085
C         50.34802        61.02252         0.14840
C         49.25750        60.07164        -0.00071
C         50.16064        62.45626         0.10534
C         48.81405        63.13778         0.12165
C         50.06077        65.44070        -0.11266
C         48.78517        64.64450        -0.00733
C         50.09950        66.86854         0.25019
C         48.81133        67.57589         0.20394
C         50.09184        69.73024         0.43667
C         48.77971        69.07747         0.25910
C         50.06708        71.12015         0.81899
C         48.88874        71.63614         1.31378
C         50.09408        74.36367         0.90130
C         48.87690        73.87059         1.34221
C         51.48418        42.32404        -0.18895
C         52.61162        44.22948        -1.24379
C         51.40236        43.55979        -0.86153
C         52.62732        45.54642        -1.70379
C         51.34519        46.21186        -2.02210
C         52.55580        48.36257        -2.18106
C         51.32092        47.68223        -2.04903
C         52.53175        49.79828        -2.51316
C         51.35928        50.59275        -2.09351
C         52.59354        52.68968        -2.50142
C         51.41456        51.99199        -2.08546
C         52.62922        54.15481        -2.54110
C         51.40433        54.88137        -2.08623
C         52.76484        57.07104        -1.96964
C         51.47122        56.35568        -1.93351
C         52.77418        58.45505        -1.73422
C         51.48382        59.18990        -1.98115
C         52.70324        61.14940        -0.43452
C         51.66394        60.46675         0.16298
C         52.61330        62.63182        -0.57260
C         51.30726        63.21939        -0.09727
C         52.59856        65.41708         0.21107
C         51.35457        64.69662        -0.17108
C         52.57391        66.82348         0.38711
C         51.30114        67.55575         0.33413
C         52.52674        69.71068         0.81610
C         51.26998        68.99722         0.47925
C         52.56972        71.18911         0.55244
C         51.27799        71.96364         0.61926
C         52.64535        74.06098         1.07422
C         51.31816        73.49273         0.76222
C         53.82116        46.28686        -1.84724
C         55.03784        48.39620        -2.25498
C         53.80702        47.67063        -2.15114
C         55.10180        49.77747        -2.45822
C         53.84795        50.49802        -2.77284
C         55.21066        52.72296        -2.56262
C         53.84418        51.99406        -2.80227
C         55.18968        54.12178        -2.12170
C         53.96660        54.90991        -2.33284
C         55.10095        56.92334        -1.32365
C         53.95060        56.31912        -1.85948
C         55.11881        58.30605        -0.99467
C         53.95001        59.06450        -1.24004
C         55.19514        61.17398        -0.42254
C         53.93946        60.50480        -0.89487
C         55.04964        62.47233         0.30877
C         53.77105        63.23311         0.22703
C         55.01671        65.35369         0.69659
C         53.79968        64.70323         0.38874
C         55.01386        66.77086         0.79479
C         53.79825        67.48140         0.66054
C         55.12786        69.66199         0.61471
C         53.80912        68.94992         0.89426
C         55.09564        71.11350         1.05705
C         53.88285        71.90034         0.74571
C         55.08591        73.96570         1.39025
C         53.83361        73.34744         1.08374
C         56.30484        50.50189        -2.22497
C         57.53541        52.57484        -1.69109
C         56.38056        51.90438        -2.17263
C         57.54737        53.95455        -1.39601
C         56.30363        54.68397        -1.52394
C         57.49627        56.70703        -0.47176
C         56.23801        56.05323        -0.97491
C         57.48382        58.17045        -0.28742
C         56.33782        58.92625        -0.44774
C         57.48017        60.99130         0.41158
C         56.38479        60.35359        -0.14090
C         57.49219        62.44468         0.64776
C         56.29826        63.20146         0.58626
C         57.46697        65.24964         1.19685
C         56.26516        64.59342         0.83855
C         57.42677        66.68603         1.68750
C         56.24472        67.48864         1.15158
C         57.47203        69.56045         1.77162
C         56.27984        68.85066         1.17525
C         57.50589        71.04793         1.50231
C         56.26528        71.77609         1.38194
C         57.53629        73.89814         1.52792
C         56.28084        73.23798         1.46176
C         58.74782        54.65059        -1.02469
C         59.98585        56.74985        -0.47386
C         58.78591        56.00071        -0.65476
C         60.00208        58.09068        -0.04481
C         58.70799        58.74842         0.29202
C         59.99374        60.90268         0.88989
C         58.68499        60.19196         0.72433
C         59.97128        62.38840         1.06245
C         58.68310        63.12745         0.98077
C         59.97155        65.18413         1.63131
C         58.66895        64.51628         1.23424
C         59.93066        66.68339         1.42763
C         58.75782        67.39386         1.46268
C         59.94881        69.55515         1.29111
C         58.76446        68.84315         1.45849
C         59.95489        71.01457         1.28303
C         58.71171        71.73426         1.43685
C         59.98603        73.85974         1.26986
C         58.74041        73.18839         1.41420
C         61.18051        58.87409        -0.00711
C         62.36396        61.03254         0.18397
C         61.21464        60.24384         0.35300
C         62.38898        62.44423         0.37791
C         61.20079        63.15943         0.78220
C         62.39524        65.28181         0.75941
C         61.19014        64.52793         0.98007
C         62.42187        66.67119         0.92879
C         61.25233        67.39534         1.55676
C         62.37597        69.51142         0.87306
C         61.19266        68.84584         1.16493
C         62.31980        70.96596         0.59786
C         61.12582        71.71282         1.02870
C         62.42333        73.83817         0.83395
C         61.17446        73.15695         1.03267
C         63.57055        63.18854         0.17723
C         64.81080        65.31751         0.21335
C         63.60098        64.58372         0.36170
C         64.85719        66.70085         0.39905
C         63.62788        67.40172         0.71885
C         64.90191        69.57836         0.85639
C         63.61290        68.80777         0.77037
C         64.85492        70.94832         0.20354
C         63.56985        71.71911         0.27902
C         64.87594        73.84335         0.49304
C         63.61572        73.18065         0.53606
C         66.08215        67.43791         0.28339
C         67.36387        69.54977         0.43224
C         66.14595        68.81369         0.46259
C         67.39454        70.95409         0.45449
C         66.13969        71.70048         0.18063
C         67.34479        73.83209         0.48147
C         66.09952        73.17311         0.34957
C         68.57891        71.71060         0.57092
C         68.54120        73.11197         0.56055
O         53.04467        49.99595        -3.89076
O         58.51050        59.12182         1.70651
O         53.36638        71.55143        -0.61380
O         37.76953        50.40036        -1.87288
O         27.57191        65.06351         1.03978
O         47.30544        64.76007         1.93154
O         42.72266        70.21887         2.67068
O         39.07456        45.59271        -1.52382
O         42.62445        53.40541        -3.28944
O         33.03789        71.28996         2.27277
O         29.22783        65.34983        -2.16644
O         62.66677        71.32069        -0.80635
O         31.24393        59.69813        -2.50581
O         48.25367        60.27442         0.94692
O         44.96638        44.27030        -2.28397
O         41.10479        63.81072        -2.45449
O         41.98731        60.73844        -3.40889
O         44.66007        65.91458        -0.80295
O         56.56013        56.05918         0.46596
O         35.17147        55.11765         1.15704
O         38.67578        55.67208        -2.99214
O         50.56071        45.55066        -3.05295
O         48.99192        72.72626         2.16315
O         35.96941        71.35040         2.40079
O         65.52047        71.14350        -1.06094
O         42.43150        44.36594        -1.68465
O         37.18934        65.94108        -2.22084
O         54.66401        52.50235        -3.89328
O         25.09502        70.76382        -1.15921
O         51.19418        72.82741        -0.56308
O         60.12838        61.49816         2.23155
O         43.63251        68.47624        -0.52919
O         37.68635        62.22732         0.05851
O         48.33827        57.14999        -3.18873
O         47.04735        58.15917         0.22999
O         41.74727        48.06775        -2.72155
O         50.73836        65.22640        -1.39954
O         51.44474        60.28441        -2.53196
O         27.80243        67.55910         1.24376
O         41.97761        39.78908         2.18332
O         48.55291        63.84176        -1.18148
O         48.62182        68.35974        -1.02116
O         30.50577        63.21684        -2.41290
O         49.76342        52.60713        -0.29553
O         42.05756        59.06116        -0.25419
O         41.19438        72.47476         2.94021
O         36.82789        50.74808         1.63899
O         42.41334        65.80032         1.83049
O         54.09193        62.46683         1.43396
O         39.01822        73.12838         0.23907
O         35.80236        63.35375        -2.78324
O         51.56827        55.42976        -0.72584
O         47.01679        41.11855        -0.83217
O         46.95896        67.28398         1.88434
O         54.77537        61.28647        -1.81827
O         31.73984        69.05546        -1.88528
O         49.72788        50.04637        -0.24342
O         53.33164        54.76938        -3.65250
O         53.11078        69.34799         2.12434
O         31.75955        65.15113         0.20687
O         45.32049        37.06312         2.37699
H         45.18428        37.50933         1.51335
O         36.26671        68.58086         2.26369
H         36.19409        69.40866         2.79745
O         28.29116        68.06305        -2.27775
H         28.89272        68.52810        -2.89618
O         55.31231        69.67280        -0.82940
H         54.66189        70.32238        -1.19754
O         47.87120        54.54392         0.03751
H         48.64067        53.98940         0.32575
O         32.83642        54.30011         1.85779
H         33.75227        54.42715         2.20635
O         46.68116        46.02725        -3.17306
H         46.28149        45.16719        -3.43945
O         47.32792        46.21220         0.41451
H         48.14410        46.09484         0.94423
O         57.30099        69.42879         3.24146
H         58.07721        69.85244         3.66748
O         39.73445        61.66240        -3.43940
H         40.54332        61.38619        -3.96790
O         65.04014        69.89441         2.28926
H         64.98672        69.05188         2.78938
O         44.74211        65.24018         2.53179
H         45.60463        65.26736         3.00372
O         44.21472        59.40268        -3.18789
H         43.45266        59.96284        -3.54399
O         51.81677        59.17229         0.57191
H         50.98228        58.84587         0.96881
O         60.15680        64.97839         3.07312
H         60.07260        64.01616         3.25307
O         52.78803        63.04464        -1.94460
H         52.21447        62.47938        -2.50752
O         46.06000        56.39863        -3.52618
H         45.89987        57.32775        -3.80265
O         61.54357        67.39218         3.01018
H         61.21030        66.52854         3.36102
O         57.24847        66.60565         3.12989
H         57.18860        67.53729         3.45973
O         33.63702        49.97405         1.62911
H         33.74268        49.27830         2.30647
H         22.78263        74.93891         1.93013
H         25.23614        75.07916         1.55705
H         27.69988        75.15320         1.43675
H         30.16914        75.18358         1.41645
H         32.65351        75.19309         1.44867
H         35.11397        75.19031         1.60324
H         37.33315        75.30234         2.10378
H         40.14455        75.03109         2.76295
H         42.74104        75.16076         1.66652
H         45.12120        75.12238         1.35832
H         47.31753        75.26118         0.75148
H         50.12136        75.29667         0.31715
H         52.67691        75.11602         1.38799
H         55.12200        75.06118         1.48865
H         57.55850        74.99750         1.56830
H         59.99824        74.96000         1.27218
H         62.43669        74.93190         0.95980
H         64.89394        74.93200         0.65871
H         67.36523        74.92836         0.56625
H         21.98191        69.17579         0.77011
H         20.70097        71.21672         1.21179
H         20.67637        73.61128         1.88154
H         24.25658        65.16080         0.43726
H         23.27744        67.10994         0.65714
H         26.99392        60.59220         0.42604
H         25.40177        62.66016         0.11466
H         29.49075        56.54501         0.03299
H         28.27414        58.59464         0.19707
H         32.14787        52.28339        -0.09199
H         30.74514        54.49762         0.13490
H         34.65755        47.79762         1.29353
H         35.24480        50.61559        -1.21798
H         37.22834        44.30641         1.84873
H         35.89361        46.17843         1.38379
H         40.05118        41.56584         4.28045
H         38.55746        42.71673         2.76291
H         42.87121        37.71533         6.19255
H         41.78172        39.68035         5.54431
H         46.50101        35.05428         7.75646
H         44.28952        36.16153         7.42473
H         48.37989        35.51042         6.18272
H         49.29673        36.76011         4.25728
H         50.31645        38.36331         2.74626
H         51.38249        40.03379         1.24316
H         52.46918        41.86979        -0.00869
H         53.56747        43.72329        -1.04228
H         54.78559        45.78199        -1.68966
H         55.97355        47.84539        -2.07515
H         57.19810        49.92504        -1.93929
H         58.44257        51.98091        -1.50232
H         59.69582        54.09374        -1.08172
H         60.94600        56.25833        -0.69518
H         62.12102        58.40911        -0.34215
H         63.28822        60.54648        -0.16474
H         64.49334        62.66568        -0.11539
H         65.73225        64.77422        -0.04429
H         66.99996        66.88475         0.03095
H         68.31539        68.99620         0.40059
H         69.54151        71.19424         0.69704
H         69.48474        73.66620         0.66627
