         621
 CSIRO Nanostructure Databank - Neutral Graphene Oxide Data Set
C          5.79122        31.68476        -0.60141
C          5.77983        33.03751        -0.56570
C          8.35130        27.45007        -0.47560
C          8.24816        28.77126        -0.86795
C          7.03263        29.53902        -0.77713
C          8.20861        31.68337        -1.11963
C          6.98972        30.91687        -0.92412
C          8.23061        33.04465        -0.96878
C          6.95986        33.85339        -1.04572
C          8.23939        35.89167        -0.18576
C          7.05802        35.26601        -0.51745
C          8.33730        37.31181        -0.00813
C         10.87629        23.25390        -0.07099
C         10.85742        24.62032        -0.21635
C          9.63729        25.36817        -0.19484
C         10.83064        27.39857        -0.89244
C          9.59680        26.72364        -0.49922
C         10.76721        28.78338        -1.26938
C          9.46340        29.44593        -1.36693
C         10.75353        31.65880        -1.36158
C          9.46240        30.96746        -1.44337
C         10.78412        33.02829        -0.94951
C          9.50453        33.67212        -0.55342
C         10.79064        35.75245         0.22156
C          9.46970        35.07040        -0.01268
C         10.79880        37.24239         0.47606
C          9.54097        38.00200         0.23100
C         10.80387        40.17557         0.29650
C          9.59150        39.40864         0.27660
C         10.76227        41.57366         0.32875
C         13.14466        18.80312        -0.10302
C         13.13050        20.24812        -0.56478
C         12.04150        21.11390        -0.09029
C         13.29346        23.13941        -0.75491
C         12.07283        22.47079        -0.28809
C         13.32155        24.55068        -0.81393
C         12.17113        25.36160        -0.26039
C         13.24708        27.34927        -1.35961
C         12.05563        26.72371        -0.88659
C         13.16452        28.74925        -1.80473
C         11.92382        29.50647        -1.56969
C         13.20876        31.65979        -1.63301
C         11.94378        30.94348        -1.58096
C         13.20997        33.09701        -1.38173
C         11.98581        33.72265        -0.91821
C         13.32113        35.82950        -0.36679
C         12.04152        35.04905        -0.25647
C         13.37858        37.24452         0.12033
C         12.11163        37.99508         0.47651
C         13.25836        40.18150         0.13103
C         12.08867        39.47254         0.25032
C         13.25056        41.64790        -0.03055
C         11.95209        42.40418         0.11837
C         13.21229        44.55385         0.52910
C         12.02230        43.85813         0.41641
C         13.27788        45.98954         0.59591
C         15.85218        14.92993         1.29291
C         15.81007        16.20626         0.70135
C         14.58316        16.91871         0.58094
C         15.71251        18.79867        -0.48480
C         14.52449        18.17860         0.01160
C         15.63532        20.09925        -1.19236
C         14.36855        20.90722        -1.10581
C         15.66267        23.05625        -1.43069
C         14.44879        22.39019        -1.08765
C         15.65542        24.47587        -1.54251
C         14.49148        25.22038        -1.25181
C         15.71028        27.38549        -1.71265
C         14.46826        26.66955        -1.44429
C         15.73823        28.82449        -1.78438
C         14.46512        29.52460        -1.96358
C         15.67523        31.69667        -2.03385
C         14.41113        30.98373        -1.80281
C         15.61309        33.21813        -2.04691
C         14.38064        33.83788        -1.53218
C         15.56963        36.15771        -1.60151
C         14.34924        35.30769        -1.32568
C         15.66689        37.49624        -0.98715
C         14.61600        38.04525        -0.16060
C         15.76485        40.34114        -0.38474
C         14.59267        39.54721         0.04715
C         15.78643        41.70743        -0.06017
C         14.51933        42.33508         0.36341
C         15.79247        44.50509         0.57781
C         14.49738        43.80285         0.63589
C         15.75498        45.94527         0.86387
C         14.47909        46.69562         0.71123
C         15.76020        48.84360         0.81915
C         14.54805        48.11345         0.80493
C         15.81387        50.20744         1.12400
C         18.38057        11.12648         3.16055
C         18.30498        12.22243         2.18226
C         17.13555        12.97792         2.10980
C         18.27755        14.81343         0.92492
C         17.06392        14.22001         1.41461
C         18.25305        16.14860         0.39582
C         17.01854        16.83770         0.25215
C         18.19722        18.83413        -0.67134
C         16.95977        18.15121        -0.32497
C         18.18130        20.13509        -1.18699
C         16.92381        20.83479        -1.52847
C         18.10767        23.04639        -1.74842
C         16.89939        22.32452        -1.63292
C         18.14514        24.46066        -1.81049
C         16.86017        25.18673        -2.10878
C         18.19779        27.38429        -2.12601
C         16.90037        26.67253        -1.83632
C         18.20377        28.87046        -1.78919
C         16.96499        29.56045        -1.78336
C         18.17982        31.71025        -1.69964
C         16.97138        31.00125        -1.82304
C         18.21020        33.20913        -1.73014
C         16.90955        33.96363        -1.94817
C         18.02252        36.06304        -1.42602
C         16.84937        35.42445        -1.70900
C         18.12376        37.51570        -1.58816
C         16.83885        38.29964        -1.29545
C         18.15847        40.40781        -0.92449
C         16.94208        39.70637        -0.85025
C         18.20570        41.76131        -0.43981
C         16.99503        42.42548        -0.04997
C         18.25174        44.54897         0.35399
C         16.98569        43.82931         0.33811
C         18.26737        45.92081         0.49515
C         17.05564        46.69710         0.79253
C         18.30330        48.87510         0.78797
C         17.03432        48.16034         0.37224
C         18.30848        50.19203         1.15980
C         17.04516        50.92306         1.26110
C         18.30463        53.00533         1.72040
C         17.07613        52.29104         1.51488
C         18.30550        54.40295         1.87332
C         20.98217         7.12634         4.76697
C         20.85859         8.39926         3.93420
C         19.64642         9.02951         3.97172
C         20.86154        10.64627         1.78571
C         19.19896        10.04319         3.02310
C         20.74626        12.00179         1.48897
C         19.47999        12.71595         1.48736
C         20.75633        14.72260         0.73677
C         19.46851        14.03785         0.99133
C         20.75695        16.17124         0.38528
C         19.46975        16.85208         0.07624
C         20.72647        18.98549        -0.33965
C         19.45137        18.15535        -0.39790
C         20.70427        20.18176        -1.25039
C         19.43217        20.79027        -1.58845
C         20.64725        23.07451        -1.73363
C         19.39173        22.32244        -1.89337
C         20.61994        24.44073        -1.56747
C         19.36629        25.19383        -1.65747
C         20.49805        27.37445        -0.96965
C         19.36067        26.59228        -1.56821
C         20.61516        28.75656        -1.59022
C         19.43306        29.57816        -1.74928
C         20.62774        31.86092        -1.45934
C         19.44066        31.03455        -1.66245
C         20.55986        33.23476        -0.92475
C         19.37281        33.92607        -1.10391
C         20.17138        36.24608        -0.23177
C         19.03648        35.33162        -0.59156
C         20.49416        37.49027        -0.69115
C         19.49622        38.16825        -1.61530
C         20.71681        40.36809        -1.09592
C         19.40584        39.70658        -1.38792
C         20.69715        41.83187        -0.73494
C         19.44038        42.47244        -0.31852
C         20.73763        44.46331         0.38539
C         19.49796        43.81569         0.12166
C         20.72952        45.86597         0.84005
C         19.54256        46.66520         0.42552
C         20.85947        48.80803         1.03754
C         19.57703        48.14846         0.59420
C         20.76545        50.17479         1.56301
C         19.56429        50.87375         1.49316
C         20.76645        52.96951         2.03118
C         19.54181        52.27944         1.76724
C         20.71799        54.36776         2.27841
C         19.50351        55.11862         2.14145
C         20.76116        57.21324         2.52069
C         19.54881        56.53087         2.23305
C         20.89842        58.63461         2.36511
C         23.74201         5.42965         6.75678
C         22.48058         5.85680         6.33436
C         23.51426         7.30822         4.69435
C         22.35687         6.78740         5.28918
C         23.42405         8.29585         3.58604
C         22.06544         8.82231         3.14952
C         23.23340        10.77478         2.09945
C         22.07236        10.09038         2.34500
C         23.21220        11.83875         1.06286
C         21.97142        12.64631         1.05108
C         23.15495        14.43320        -0.20080
C         21.98851        13.92073         0.56957
C         23.10454        15.84869        -0.69831
C         22.02958        16.75092        -0.15932
C         23.08333        18.64652        -1.52886
C         22.02008        18.18354        -0.53464
C         23.13959        20.14753        -1.48850
C         21.92161        20.83912        -1.50496
C         23.19491        23.02806        -1.44550
C         21.91877        22.30472        -1.77558
C         23.19412        24.51751        -1.29544
C         21.86325        25.22853        -1.45160
C         23.02655        27.32156        -1.00014
C         21.80375        26.63579        -1.07848
C         23.07458        28.72019        -1.21787
C         21.89366        29.24696        -1.80910
C         23.13436        31.90730        -1.26446
C         21.90855        31.39191        -1.77653
C         23.08097        33.17726        -0.71398
C         21.83882        33.86599        -0.50974
C         23.11239        35.98816        -0.04742
C         21.96470        35.12761         0.09912
C         23.03039        37.37162        -0.21799
C         21.80490        38.15048        -0.47947
C         23.12382        40.27858        -0.35032
C         21.89441        39.53077        -0.71742
C         23.22058        41.75636        -0.43660
C         21.98326        42.53842        -0.45855
C         23.23743        44.46670         0.45285
C         22.00075        43.84792         0.20970
C         23.31818        45.74241         1.26941
C         21.99822        46.51685         1.26787
C         23.34203        48.51155         2.05055
C         22.10444        48.01196         1.28536
C         23.33072        50.05426         2.23585
C         21.99983        50.81952         2.04816
C         23.24083        52.93213         2.42566
C         22.01733        52.28137         2.08897
C         23.09514        54.25537         2.90642
C         21.89296        55.00911         2.75858
C         23.73463        57.51670         2.47572
C         21.85754        56.41526         2.94427
C         23.37816        58.69259         1.81363
C         22.07397        59.32029         1.97244
C         22.96320        61.25671         0.74130
C         21.94617        60.64932         1.48449
C         24.89303         5.90509         6.13083
C         25.98494         7.32742         4.40896
C         24.79697         6.85713         5.09724
C         25.99637         8.45438         3.62468
C         24.67183         9.16177         3.46901
C         25.67110        11.25924         2.33885
C         24.49819        10.49822         2.79523
C         25.75331        11.96973         1.18649
C         24.49049        12.40074         0.52042
C         25.66648        14.40675        -0.35674
C         24.48594        13.77530        -0.06202
C         25.71008        15.75284        -0.98891
C         24.38223        16.51009        -1.13173
C         25.67868        18.59090        -1.56224
C         24.40641        17.96091        -1.23895
C         25.70254        20.13332        -1.58063
C         24.42008        20.81691        -1.21968
C         25.67314        23.05624        -1.08678
C         24.39883        22.27964        -0.96100
C         25.65723        24.42366        -0.45662
C         24.29443        25.18074        -0.51866
C         25.21935        27.46011        -0.00529
C         24.22369        26.65520        -0.53350
C         25.47851        28.83246        -0.36163
C         24.22480        29.53882        -0.75243
C         25.63483        31.64572        -0.68601
C         24.29096        31.04149        -0.83200
C         25.63238        33.14229        -0.87851
C         24.36608        33.76603        -0.28856
C         25.67482        35.93098        -0.17685
C         24.39248        35.24336        -0.04335
C         25.59518        37.37208         0.01872
C         24.36203        38.05873        -0.54496
C         25.69149        40.24986        -0.30994
C         24.39436        39.52511        -0.17216
C         25.62939        41.65671        -0.85594
C         24.40648        42.43318        -0.40679
C         25.64332        44.58080        -0.07770
C         24.45139        43.85337        -0.04540
C         25.80634        45.82346         0.78521
C         24.52889        46.61997         0.95572
C         25.86190        48.61960         1.65284
C         24.55298        47.93173         1.32709
C         25.81372        50.15594         1.73760
C         24.59106        50.85339         2.10992
C         25.82209        53.02399         2.27516
C         24.53706        52.24526         2.29686
C         25.87941        54.49113         1.95169
C         24.99845        55.38104         2.53132
C         25.73407        57.22278         1.08210
C         24.83965        56.72367         2.08469
C         25.52032        58.52835         0.58686
C         24.36029        59.26253         0.92298
C         24.12861        60.57092         0.41096
C         27.21564         8.81835         2.90151
C         28.56265        10.65409         1.68721
C         27.56256        10.10817         2.56117
C         28.37886        11.86741         1.00117
C         27.04326        12.40904         0.59610
C         28.23780        14.46138        -0.41242
C         26.98187        13.70902        -0.21748
C         28.22094        15.84136        -0.78040
C         26.98047        16.52038        -0.98923
C         28.17207        18.64937        -1.27617
C         26.96084        17.89823        -1.29315
C         28.15974        20.09835        -1.26885
C         26.98050        20.81957        -1.33481
C         28.24213        23.05666        -1.08620
C         26.95669        22.30884        -1.29519
C         28.21653        24.51836        -0.73842
C         26.93883        25.13831        -0.36724
C         28.15953        27.25707         0.01340
C         27.05740        26.39469         0.21498
C         27.99910        28.73514         0.17840
C         26.71423        29.46800        -0.17911
C         28.07509        31.63209        -0.32652
C         26.78488        30.91901        -0.39113
C         28.08320        33.08857        -0.35451
C         26.89703        33.81697        -0.41936
C         28.13470        35.98417        -0.21325
C         26.88512        35.24806        -0.24246
C         28.14748        37.38819        -0.12441
C         26.89338        38.13115         0.09085
C         28.15509        40.30007        -0.14377
C         26.86364        39.57923        -0.21972
C         28.19033        41.77920        -0.37877
C         26.92078        42.46810        -0.78450
C         28.20841        44.68768        -0.39787
C         26.88964        43.96282        -0.57082
C         28.20615        46.06108         0.15638
C         27.02257        46.66760         0.48087
C         28.27299        48.81746         0.87502
C         26.93491        48.16315         0.64693
C         28.27047        50.16959         1.23432
C         27.02058        50.83143         1.61459
C         28.24498        53.02525         1.37601
C         27.09006        52.27105         1.94100
C         28.10922        54.27872         0.88141
C         26.90209        55.05447         1.10755
C         26.81863        56.38184         0.68892
C         29.50498        12.51545         0.41711
C         30.75962        14.37116        -0.67336
C         29.45728        13.76863        -0.19887
C         30.73256        15.87327        -0.87526
C         29.45313        16.56291        -0.98438
C         30.67898        18.69630        -1.43873
C         29.41761        17.95066        -1.20055
C         30.72273        20.12729        -1.11427
C         29.42464        20.78829        -0.86708
C         30.70595        23.02260        -0.61564
C         29.44296        22.27973        -0.68881
C         30.65537        24.38103         0.07879
C         29.43827        25.19983        -0.27651
C         30.65604        27.35297        -0.12865
C         29.41520        26.59010        -0.12366
C         30.60405        28.76952        -0.11037
C         29.31718        29.50176         0.09459
C         30.55287        31.65666        -0.25254
C         29.28862        30.95515        -0.20832
C         30.56603        33.08782        -0.31595
C         29.33700        33.80790        -0.29352
C         30.59864        35.92174        -0.41255
C         29.35867        35.22865        -0.31618
C         30.59097        37.38667        -0.56516
C         29.35743        38.13781        -0.32239
C         30.64428        40.27178        -0.22490
C         29.40594        39.53627        -0.27979
C         30.65785        41.73929        -0.22292
C         29.50594        42.45545        -0.47611
C         30.75168        44.61612        -0.03141
C         29.51717        43.93444        -0.46898
C         30.71791        46.02221         0.19411
C         29.48816        46.74217         0.26834
C         30.74621        48.80002         0.78284
C         29.49050        48.11606         0.63037
C         30.71367        50.20381         1.04387
C         29.52642        50.87350         1.24886
C         29.59009        52.36197         1.48545
C         31.92714        16.52799        -0.98008
C         33.23123        18.74447        -1.10914
C         32.01914        17.94960        -1.34240
C         33.20320        20.12953        -1.07126
C         31.91337        20.80792        -0.97529
C         33.23791        22.96304        -0.43828
C         31.91445        22.21774        -0.51719
C         33.22126        24.46662        -0.35272
C         31.94155        25.18758        -0.06390
C         33.09482        27.36862        -0.39400
C         31.87498        26.65832        -0.28218
C         33.04553        28.78070        -0.27145
C         31.81647        29.49381        -0.18614
C         33.00382        31.69415        -0.26656
C         31.78634        30.95710        -0.19402
C         33.02636        33.07710        -0.46835
C         31.80261        33.79789        -0.41586
C         33.08995        35.93906        -0.29599
C         31.81695        35.23312        -0.45116
C         33.12606        37.37372        -0.07155
C         31.90586        38.14758        -0.37813
C         33.06603        40.27776         0.31422
C         31.83767        39.57480        -0.08241
C         33.11469        41.73838         0.14297
C         31.92973        42.44239        -0.04777
C         33.19780        44.56100         0.27426
C         31.94430        43.88195         0.04437
C         33.18036        45.96311         0.43014
C         31.97087        46.70038         0.43205
C         31.95504        48.09645         0.67155
C         34.42248        20.91777        -1.11430
C         35.61961        23.10757        -1.18100
C         34.45238        22.29381        -0.95578
C         35.60618        24.49946        -1.15977
C         34.27323        25.22309        -1.13583
C         35.54649        27.33193        -0.79104
C         34.34437        26.66996        -0.69294
C         35.62181        28.74608        -0.38478
C         34.31892        29.49231        -0.11810
C         35.52801        31.69631        -0.65659
C         34.29478        30.98981        -0.15120
C         35.58298        33.15461        -0.88336
C         34.25301        33.85390        -0.94842
C         35.53116        35.79574         0.13508
C         34.27254        35.22426        -0.33262
C         35.55206        37.30808         0.42763
C         34.30412        38.03638         0.18826
C         35.63545        40.21513         0.25660
C         34.34561        39.49968         0.41188
C         35.60348        41.62416         0.26151
C         34.39329        42.39720         0.26029
C         34.40337        43.80412         0.31627
C         36.78894        25.27895        -1.32287
C         37.98022        27.45381        -1.37716
C         36.78643        26.67609        -1.20349
C         37.99570        28.85675        -1.32721
C         36.74840        29.51574        -0.96496
C         38.27907        31.92507        -1.43335
C         36.52217        30.82788        -1.26659
C         38.12184        33.16062        -0.82461
C         36.82085        33.84353        -0.71361
C         38.03750        35.78374         0.47494
C         36.81045        35.13769        -0.14427
C         38.01105        37.27259         0.16664
C         36.84926        38.02012         0.24652
C         36.81511        39.45043         0.13333
C         39.22667        29.62032        -1.35564
C         40.58017        31.67135        -0.76516
C         39.37142        31.01119        -1.21615
C         40.55915        32.98676        -0.39052
C         39.33709        33.77840        -0.32067
C         39.32266        35.07696         0.12933
O         24.44244        34.23378         1.06866
O         22.02665        30.33979        -2.67642
O         22.69234        14.77799        -1.57461
O         19.40209        21.34475        -2.95583
O         15.53301        32.47233        -3.28868
O         26.78855        11.13129         3.15779
O         21.05268        46.03170         2.27111
O         12.60488        42.13622        -1.23327
O         23.74219        11.39880        -0.24898
O         14.49342        42.80904         1.74517
O         28.66656        29.22339         1.39036
O         26.01796        26.90112         0.98758
O         28.97148        44.62575        -1.65317
O         37.26445        31.44793        -2.28090
O         28.09162        41.24063         1.00033
O          9.29294        30.14498        -2.64608
O         22.61236        17.77215         0.73370
O         25.62739        19.38537        -2.82090
O         22.86516        25.12290        -2.56325
O         20.91281        35.68878         0.82702
O         19.69307        47.52862        -0.75588
O         29.25574        21.38011         0.48059
O         11.46932        37.60540         1.72237
O         26.97232        12.39799        -0.86993
O         32.68666        22.36408         0.76614
O         24.73290        24.49072         0.67723
O         33.60368        39.85712         1.63724
O         35.17040        28.99279         0.97424
O         23.82866        30.38739         0.42395
O         21.93734        48.67733         0.00914
O         13.80837        36.13799         0.97564
O         23.47514        47.91773         3.32197
O         20.17002        40.31397        -2.46980
O         22.86861        22.65864        -2.82346
O         15.03101        38.66254         1.12988
O         24.14698        54.89246         3.54224
O         16.48035        46.36709         2.08869
O         28.46949        24.01517        -2.15535
O          9.32690        33.94268         0.90636
O         20.93266        15.79073         1.79189
O         31.36917        37.83739        -1.72199
O         26.12055        37.80625         1.30449
O         22.93486        57.05079         3.54584
O         31.38523        18.28003        -2.64033
O         21.37665        42.60721        -1.80456
O         23.62564        39.84874         1.01161
O         13.72196        29.00391        -3.13582
O         24.44075        10.37229         4.26536
O         19.73463         9.83509         1.72625
O         22.77575         7.76170         2.39593
O         35.45185        36.35151         1.51790
O         24.35029        21.39622         0.18180
O         22.51296        50.37119         3.37587
O         17.31669        38.04120        -2.67602
O         35.26304        31.51358         0.80204
O         14.47890        36.02462        -2.60539
O         32.94661        24.92359         0.99255
O         25.01857        15.83033        -2.27431
O         13.33561        20.38092        -2.02030
O         26.91382        43.36383        -1.92311
O         26.76630        52.62195         3.33009
O         11.60137        34.99120         1.14191
O         26.21646        22.92612        -2.42130
O         17.83258        33.70858        -3.06468
O         16.16043        20.09500        -2.55565
O         25.51475        33.40460        -2.31806
H         26.33712        33.09778        -2.75486
O         16.72716        25.11412        -3.59439
H         15.81389        25.39400        -3.82337
O         31.84294        13.99610         0.18459
H         31.68187        14.37863         1.07119
O         17.01359        48.16205        -1.08657
H         17.93204        47.94629        -1.38660
O         22.64255        18.21326        -2.84162
H         23.34250        18.44788        -3.48925
O         26.44984        48.66700        -0.64556
H         27.06287        48.35099        -1.34288
O         23.53764        45.33750         2.65546
H         23.45659        46.20339         3.17677
O         25.38947        41.40169        -2.27912
H         25.63363        42.22980        -2.75755
O         30.49382        24.03938         1.48500
H         31.37020        23.68974         1.78144
O         30.55445        52.96960         0.62208
H         30.35448        52.70653        -0.29923
O         19.99689        37.93178        -2.94538
H         19.35020        38.31449        -3.57779
O         20.17064        27.53428         0.46399
H         20.91104        28.01776         0.88932
O         33.77852        25.21466        -2.51532
H         34.48037        25.58681        -3.09010
O         12.34870        18.03110        -1.01279
H         12.57224        18.34203        -1.91796
O         34.00389        34.04384        -2.39690
H         33.22482        34.63449        -2.48952
O         12.51869        25.62237         1.15273
H         12.52370        24.75687         1.61460
O         26.17968        48.17307         2.98285
H         25.30494        48.06915         3.45794
O         37.96121        35.61992         1.93161
H         37.06147        35.92532         2.20917
O         20.75272        19.53616         1.01093
H         21.34059        18.94604         1.54306
O         20.03216         7.11666         5.83541
H         20.36080         7.70139         6.54846
O         18.33034        35.06911         0.67351
H         19.02156        34.95395         1.36542
O         24.53132        37.96189        -1.98633
H         23.79183        38.43343        -2.42663
O         26.12970        45.23672         2.09170
H         25.26161        45.09094         2.56474
O         18.37435        27.34203        -3.58949
H         17.99746        26.48232        -3.90701
O          6.71653        34.05098        -2.49353
H          6.59179        33.16374        -2.89453
H          4.88805        31.12244        -0.31766
H          4.85528        33.57161        -0.29922
H          7.45527        26.92084        -0.11665
H          6.11296        29.00956        -0.48316
H          6.15102        35.88108        -0.62884
H          7.42129        37.90579        -0.14986
H          9.93524        22.71054         0.10647
H          8.69700        24.82978         0.00053
H          8.64299        39.96157         0.19683
H          9.79740        42.07201         0.50762
H         12.64844        18.74191         0.90236
H         11.14277        20.64089         0.33328
H         11.07398        44.41802         0.43478
H         12.33594        46.55372         0.51503
H         14.92072        14.47961         1.66675
H         13.65475        16.44289         0.92878
H         13.60453        48.67124         0.91737
H         14.87722        50.74565         1.33799
H         17.81109        11.25906         4.09310
H         16.23321        12.61918         2.62700
H         16.13234        52.85513         1.55292
H         17.35694        54.95416         1.79557
H         20.68264         6.28742         4.07524
H         18.92171         8.66077         4.71911
H         18.63941        57.11331         2.02710
H         19.95792        59.19872         2.25433
H         23.82454         4.69586         7.57042
H         21.57210         5.45804         6.80697
H         22.81092        62.27697         0.36163
H         20.99638        61.18205         1.63700
H         25.88301         5.54551         6.44498
H         26.92288         6.77668         4.57608
H         26.24708        58.96741        -0.11184
H         24.88451        61.03813        -0.23548
H         27.88445         7.99178         2.61580
H         29.53399        10.14439         1.58406
H         28.98306        54.78457         0.44292
H         27.60656        56.79160         0.04070
H         30.49776        12.06628         0.57356
H         30.98547        13.90852        -1.67575
H         31.65923        50.76438         1.08286
H         29.94936        52.53955         2.53839
H         32.85683        15.96838        -0.79233
H         34.18977        18.21522        -0.99680
H         34.12804        46.49724         0.59620
H         32.90614        48.63010         0.81602
H         35.35124        20.39317        -1.38652
H         36.57425        22.59071        -1.36856
H         36.55921        42.17021         0.23130
H         35.36097        44.33448         0.42980
H         37.74279        24.75809        -1.49892
H         38.91574        26.91443        -1.59046
H         38.96270        37.78613        -0.04130
H         37.77483        39.97881         0.02379
H         40.15165        29.02240        -1.29070
H         41.51387        31.09383        -0.69718
H         41.48776        33.46080        -0.03945
H         40.26117        35.54637         0.46211
