         635
 CSIRO Nanostructure Databank - Neutral Graphene Oxide Data Set
C         22.84173        69.77026        -0.98814
C         22.88557        71.26007        -0.74673
C         21.68953        71.96965        -0.66734
C         22.88310        74.07200        -0.51530
C         21.69017        73.37329        -0.54013
C         25.42960        65.55504        -0.57486
C         25.40712        66.95491        -0.59655
C         24.17967        67.68718        -0.72209
C         25.38392        69.81453        -0.68005
C         24.15921        69.06262        -0.76762
C         25.37088        71.23829        -0.67875
C         24.12305        71.95256        -0.68199
C         25.35460        74.08374        -0.55763
C         24.12396        73.38066        -0.58533
C         27.94073        61.29506        -0.27418
C         27.89547        62.70938        -0.26910
C         26.68256        63.42412        -0.43626
C         27.88018        65.57420        -0.32534
C         26.64818        64.83371        -0.44477
C         27.86725        66.99514        -0.37918
C         26.63654        67.69586        -0.51319
C         27.85601        69.85644        -0.51743
C         26.62066        69.11897        -0.55565
C         27.82959        71.27313        -0.64335
C         26.60499        71.96041        -0.66066
C         27.80451        74.13544        -0.50839
C         26.58616        73.41588        -0.61254
C         30.44371        57.03802         0.14438
C         30.41002        58.45661         0.13175
C         29.20829        59.16680        -0.08319
C         30.35857        61.32911         0.17672
C         29.15023        60.58734        -0.07362
C         30.33643        62.75840         0.15471
C         29.11974        63.45240        -0.08883
C         30.32941        65.62012        -0.01411
C         29.10641        64.87490        -0.15004
C         30.30526        67.02671        -0.02700
C         29.09241        67.73515        -0.24638
C         30.34743        69.88555        -0.33937
C         29.08463        69.15850        -0.34022
C         30.35654        71.33799        -0.47399
C         29.10324        72.03320        -0.93593
C         30.24795        74.19159        -0.33397
C         29.05688        73.49352        -0.53591
C         32.97129        52.81989         0.01191
C         32.89483        54.11121         0.79324
C         31.66522        54.93107         0.47514
C         32.95703        57.06782         0.21852
C         31.65083        56.30359         0.32626
C         32.87151        58.52621         0.64112
C         31.61668        59.20844         0.42630
C         32.74038        61.36169         0.89416
C         31.55242        60.60636         0.47179
C         32.82231        62.78194         0.47076
C         31.54800        63.52237         0.28778
C         32.88873        65.63103         0.06866
C         31.56181        64.90064         0.15125
C         32.80757        67.10377         0.31748
C         31.50350        67.82250         0.41941
C         32.83593        69.90151        -0.45814
C         31.53256        69.21056        -0.16501
C         32.79080        71.37312        -0.11695
C         31.50790        72.05526        -0.22421
C         32.69031        74.21070         0.01549
C         31.51310        73.52189        -0.19603
C         35.51385        48.71757        -1.14856
C         35.49857        50.14415        -0.65699
C         34.29709        50.85516        -0.69765
C         35.39574        52.75697         0.53422
C         34.16292        52.15990        -0.11706
C         35.35765        54.26689         0.50217
C         34.17912        54.90628         0.65707
C         35.35491        57.14018         0.89752
C         34.06977        56.36980         0.99494
C         35.32546        58.51870         1.07011
C         34.03043        59.19158         1.01429
C         35.31033        61.39261         1.21282
C         34.02345        60.64772         1.22899
C         35.31320        62.79710         1.18260
C         34.08285        63.51657         0.74665
C         35.21749        65.74759         1.13890
C         33.89889        64.99218         1.06066
C         35.25150        67.14126         0.67820
C         34.01506        67.81427         0.39440
C         35.25276        69.90035         0.14060
C         34.03632        69.22145         0.15213
C         35.27604        71.36760        -0.23142
C         33.95733        72.05631         0.03411
C         35.24887        74.21344         0.08246
C         33.95718        73.51423         0.43357
C         37.87016        44.39119        -0.79685
C         37.89221        45.75625        -0.64468
C         36.72964        46.57309        -0.90694
C         37.91388        48.61046        -0.22324
C         36.74291        47.93392        -0.73999
C         37.89500        50.02307         0.01601
C         36.70002        50.75577        -0.21859
C         37.91321        52.86546         0.50346
C         36.68423        52.25602        -0.12801
C         37.90815        54.25577         0.69180
C         36.65214        54.99215         0.40527
C         37.85695        57.14083         1.10621
C         36.63142        56.46690         0.66635
C         37.80306        58.54604         1.34065
C         36.54645        59.25080         1.26460
C         37.75224        61.42060         1.43750
C         36.53876        60.68845         1.33839
C         37.76311        62.82489         1.31519
C         36.52827        63.51460         1.22730
C         37.77596        65.71020         0.94291
C         36.52356        64.99342         1.25342
C         37.74421        67.08764         0.70150
C         36.48294        67.81727         0.59106
C         37.73015        69.91600        -0.07873
C         36.46922        69.20604         0.30112
C         37.73840        71.38286         0.23801
C         36.43331        72.07962         0.51033
C         37.71927        74.21339         0.01520
C         36.45119        73.55696         0.16952
C         40.46723        40.32620        -2.03481
C         40.35257        41.61121        -1.44238
C         39.16394        42.30308        -1.35215
C         40.35641        44.32864        -0.50306
C         39.06696        43.53260        -0.48679
C         40.30983        45.74797        -0.19455
C         39.11014        46.43952        -0.22435
C         40.22546        48.50025         0.60691
C         39.08239        47.86056         0.06237
C         40.20650        49.88844         0.83788
C         39.06293        50.66866         0.54884
C         40.20667        52.78744         1.31998
C         39.06769        52.10688         0.79411
C         40.22812        54.19055         1.43175
C         39.06570        54.94531         1.13014
C         40.22121        57.10923         1.63462
C         39.04203        56.40307         1.29393
C         40.23510        58.53137         1.61154
C         39.01443        59.24247         1.55382
C         40.26848        61.41030         1.35592
C         39.01774        60.71989         1.85194
C         40.24498        62.84304         1.14463
C         39.02336        63.55863         1.18928
C         40.23454        65.68464         0.78545
C         39.00949        64.97415         0.96875
C         40.22508        67.09857         0.59246
C         38.98238        67.80771         0.52703
C         40.19681        69.93530         0.28250
C         38.98337        69.19731         0.30667
C         40.17773        71.35411         0.19639
C         38.94006        72.07089         0.21239
C         40.18450        74.20652        -0.05849
C         38.93963        73.53722         0.10986
C         42.94603        36.06831        -2.53059
C         42.91275        37.45166        -2.23050
C         41.71415        38.20167        -2.32044
C         42.89594        40.21395        -1.58308
C         41.68125        39.57473        -1.98691
C         42.86164        41.69506        -1.39178
C         41.57042        42.17609        -0.72964
C         42.84212        44.47339        -0.64830
C         41.54723        43.68695        -0.64619
C         42.72000        45.73477         0.17963
C         41.52735        46.37853         0.28219
C         42.71321        48.44774         1.09446
C         41.41035        47.66774         1.06730
C         42.70005        49.82930         1.29831
C         41.39660        50.52437         1.45607
C         42.71275        52.68567         1.90252
C         41.38361        51.99190         1.76268
C         42.74357        54.18577         2.04613
C         41.35978        54.86804         2.19615
C         42.75909        57.10072         1.73417
C         41.44458        56.37717         1.98200
C         42.69668        58.53068         1.36703
C         41.48863        59.25059         1.48226
C         42.67052        61.33938         0.68235
C         41.43787        60.67879         1.24714
C         42.70943        62.83939         0.83419
C         41.48181        63.54886         0.91924
C         42.70248        65.67204         0.58538
C         41.47769        64.97179         0.78651
C         42.70287        67.09167         0.36613
C         41.44669        67.81604         0.39962
C         42.65956        69.96214         0.03217
C         41.43956        69.22073         0.29935
C         42.66134        71.32488        -0.01221
C         41.45850        72.10334         0.44910
C         42.63925        74.21346        -0.21973
C         41.42312        73.54160        -0.02023
C         45.36973        33.21188        -2.58838
C         44.17976        33.92899        -2.70580
C         45.35026        35.97713        -2.01520
C         44.14140        35.32222        -2.42133
C         45.34068        37.37149        -1.72505
C         44.12403        38.10633        -1.81913
C         45.33083        40.15592        -1.11000
C         44.10819        39.49861        -1.50367
C         45.28332        41.52795        -0.69519
C         44.07758        42.27634        -0.74255
C         45.23685        44.23200         0.13364
C         44.05713        43.61751        -0.33577
C         45.21947        45.72114         0.37581
C         43.90021        46.23640         0.97030
C         45.16604        48.43220         1.22617
C         43.94264        47.74788         1.07349
C         45.16971        49.86802         1.29167
C         43.92346        50.56270         1.33428
C         45.12740        52.70589         1.32883
C         43.93104        51.98205         1.46108
C         45.10259        54.14657         1.24571
C         43.96495        54.88968         1.54625
C         45.14265        57.02250         1.05838
C         43.98100        56.33026         1.41992
C         45.14237        58.47167         1.00491
C         43.93650        59.18054         1.12504
C         45.22905        61.37879         0.96280
C         43.93518        60.65468         1.14048
C         45.19242        62.82064         0.63510
C         43.93283        63.52315         0.67953
C         45.15529        65.65610         0.37144
C         43.93211        64.95413         0.54215
C         45.14408        67.08010         0.23174
C         43.90353        67.77090         0.13094
C         45.15384        69.96894        -0.06199
C         43.89170        69.19208        -0.39186
C         45.14579        71.33002        -0.11431
C         43.88105        72.04629        -0.52518
C         45.09852        74.22156        -0.29240
C         43.89183        73.53711        -0.26351
C         46.55102        33.83909        -2.19227
C         47.75124        35.89122        -1.49739
C         46.56677        35.23042        -1.90072
C         47.76264        37.27715        -1.23100
C         46.54962        38.03192        -1.35271
C         47.80109        40.10696        -0.79968
C         46.56029        39.43332        -1.07846
C         47.73641        41.50449        -0.52508
C         46.48659        42.18139        -0.31588
C         47.71084        44.24479         0.39310
C         46.46770        43.54342         0.10121
C         47.69925        45.57513         0.78682
C         46.40444        46.21362         1.20728
C         47.63213        48.39805         1.26626
C         46.42840        47.72622         1.20966
C         47.65557        49.84580         1.70526
C         46.38940        50.59753         1.35898
C         47.61903        52.75825         1.24338
C         46.38605        52.00380         1.29346
C         47.62049        54.10478         0.89177
C         46.29919        54.79039         0.57952
C         47.53013        56.93987         0.45622
C         46.36865        56.29014         0.77240
C         47.51290        58.39641         0.22175
C         46.35418        59.18750         0.67229
C         47.64067        61.28200         0.29847
C         46.42178        60.57790         0.64131
C         47.64543        62.75102         0.33097
C         46.39670        63.49020         0.46750
C         47.60862        65.63831         0.31868
C         46.40189        64.93802         0.36274
C         47.61230        67.07299         0.23787
C         46.37223        67.80546         0.21859
C         47.60694        69.94911         0.16946
C         46.39601        69.23671         0.15328
C         47.64877        71.36525         0.00808
C         46.37293        72.13135         0.25720
C         47.54469        74.17142        -0.59929
C         46.37469        73.54301        -0.28580
C         48.94788        37.93947        -0.81751
C         50.25886        39.85801        -0.10221
C         49.02332        39.33235        -0.63148
C         50.65227        41.19658        -0.22523
C         48.89263        42.31933        -0.52951
C         50.21705        44.15386         0.45279
C         48.97810        43.58555         0.10787
C         50.16723        45.48924         1.17095
C         48.91625        46.30380         0.93839
C         50.12726        48.46030         1.01364
C         48.87413        47.68493         1.11251
C         50.11571        49.92286         1.26174
C         48.92652        50.59015         1.38018
C         50.13055        52.75652         1.03156
C         48.91619        52.08384         1.61676
C         50.06943        54.10989         0.61843
C         48.84164        54.79319         0.57768
C         50.04133        56.96871        -0.01332
C         48.73808        56.17317        -0.05439
C         50.08011        58.34489        -0.05708
C         48.80470        59.11610        -0.07071
C         50.06184        61.29389        -0.33834
C         48.81547        60.57893         0.09081
C         50.09468        62.74950         0.06568
C         48.84322        63.44316         0.23565
C         50.07822        65.59881         0.03155
C         48.89458        64.90358         0.62618
C         50.01764        67.00538        -0.23621
C         48.81094        67.76921         0.05757
C         50.13082        69.93206        -0.06139
C         48.89360        69.21725         0.40863
C         50.11074        71.33987        -0.20420
C         48.84601        72.03465        -0.22697
C         50.10004        74.18303        -0.43379
C         48.84488        73.43487        -0.79049
C         51.57316        41.99604         0.47607
C         52.63803        44.15197         0.91722
C         51.47672        43.42815         0.55076
C         52.66277        45.57833         1.04506
C         51.44481        46.25909         1.08098
C         52.63988        48.44454         1.56622
C         51.42723        47.72780         1.03060
C         52.63023        49.92235         1.24270
C         51.38572        50.62953         1.19184
C         52.59871        52.77627         0.88171
C         51.35047        52.03650         0.99782
C         52.59731        54.09269         0.51922
C         51.30531        54.66782        -0.07140
C         52.59124        56.96343        -0.13742
C         51.29828        56.19936        -0.21425
C         52.57631        58.43853        -0.05734
C         51.33188        59.10916        -0.10815
C         52.56065        61.22979        -0.04652
C         51.34396        60.52863        -0.09985
C         52.56104        62.68109         0.37061
C         51.28855        63.41860         0.04916
C         52.56498        65.64565         0.03133
C         51.31605        64.86781        -0.35552
C         52.58686        67.01269        -0.06257
C         51.34717        67.77032        -0.35071
C         52.58011        69.91901        -0.20044
C         51.34172        69.23505        -0.15157
C         52.57589        71.35192        -0.25546
C         51.34100        72.05005        -0.31697
C         52.56423        74.19911        -0.28639
C         51.32241        73.50845        -0.34962
C         53.89503        46.33087         1.06168
C         55.11485        48.46940         1.17395
C         53.92237        47.71735         1.21601
C         55.11319        49.88664         1.22559
C         53.85057        50.59542         1.24558
C         55.16580        52.78289         1.13782
C         53.84962        52.07062         1.26667
C         55.15944        54.17540         0.65943
C         53.83933        54.92001         0.77331
C         55.07756        56.96088        -0.14285
C         53.84058        56.24173         0.08845
C         55.06732        58.42314         0.26895
C         53.79078        59.15235        -0.04660
C         55.07395        61.30860         0.10906
C         53.80595        60.56074        -0.00892
C         55.08274        62.71221         0.17229
C         53.80042        63.45935        -0.11397
C         55.08437        65.63265         0.20102
C         53.80006        64.89347         0.46267
C         55.07451        67.04496         0.09281
C         53.81974        67.77839        -0.01101
C         55.08045        69.89755        -0.41477
C         53.80326        69.16656        -0.15404
C         55.05540        71.37688        -0.15250
C         53.81644        72.07428        -0.24119
C         55.04274        74.20214        -0.28790
C         53.80415        73.51335        -0.24946
C         56.33926        50.59554         1.11968
C         57.61503        52.69392         0.80428
C         56.41301        51.99582         1.00169
C         57.63316        54.10523         0.60818
C         56.35568        54.79130         0.40884
C         57.62361        56.96733         0.29169
C         56.41160        56.21567         0.00964
C         57.58470        58.46638         0.43336
C         56.34195        59.13731        -0.20866
C         57.53294        61.32685         0.15719
C         56.32405        60.62364         0.09622
C         57.54403        62.74527         0.31698
C         56.29521        63.43901         0.27658
C         57.52730        65.56511         0.43422
C         56.29911        64.88501         0.29031
C         57.51506        67.05202         0.64505
C         56.28593        67.76676         0.17106
C         57.50075        69.89949         0.18794
C         56.31837        69.18544         0.05238
C         57.52079        71.38870         0.40495
C         56.25204        72.07986        -0.02792
C         57.51999        74.15683        -0.38836
C         56.27200        73.50800        -0.19870
C         58.82002        54.84922         0.61757
C         60.06031        57.02601         0.59392
C         58.83808        56.28635         0.53103
C         60.12534        58.41853         0.34436
C         58.87052        59.12549        -0.00585
C         60.08171        61.34791         0.25095
C         58.83171        60.62773        -0.02446
C         60.05224        62.74716         0.45334
C         58.77990        63.46250         0.44714
C         60.01223        65.62969         0.66679
C         58.75972        64.87443         0.56118
C         60.04146        66.98028         0.45160
C         58.78821        67.70769         0.14993
C         60.04471        69.95836         0.52994
C         58.79785        69.20117         0.12873
C         60.01939        71.37596         0.00100
C         58.78557        72.04964        -0.09533
C         59.96479        74.07161        -0.79505
C         58.75354        73.43919        -0.43158
C         61.30139        59.17377         0.38697
C         62.50070        61.33574         0.54238
C         61.29708        60.61092         0.34634
C         62.48806        62.72415         0.69496
C         61.27016        63.43564         0.67002
C         62.54729        65.59980         0.56400
C         61.28597        64.90162         1.03676
C         62.55299        66.98447         0.30143
C         61.27438        67.70884        -0.03430
C         62.49081        69.88033         0.10829
C         61.32528        69.20923         0.23770
C         62.54412        71.39573         0.12709
C         61.22813        72.03326        -0.26223
C         62.40848        73.98621        -1.17093
C         61.20024        73.38266        -0.73757
C         63.76130        63.45723         1.05787
C         64.96291        65.54404         0.27043
C         63.77228        64.89652         0.60358
C         64.97994        66.94645         0.03415
C         63.75795        67.66808         0.12792
C         64.94229        69.78758        -0.52252
C         63.81525        69.16700         0.25303
C         64.89953        71.17020        -0.80876
C         63.73179        71.95020        -0.63567
C         64.71471        73.82852        -1.93202
C         63.64203        73.27317        -1.20740
C         66.15184        67.64044        -0.38247
C         67.26271        69.60819        -1.36168
C         66.12854        69.01126        -0.73654
C         67.28040        70.96856        -1.70252
C         66.14639        71.80531        -1.27328
C         67.09180        73.62427        -2.84195
C         66.04410        73.25684        -1.89983
C         68.34541        71.56460        -2.41106
C         68.22600        72.84952        -2.98146
O         42.97877        53.32699         3.20150
O         55.82883        56.53282        -1.31485
O         47.91275        58.69362        -1.19219
O         50.65131        67.39308        -1.56060
O         55.27198        69.79639        -1.95867
O         41.12286        51.01451         2.82502
O         42.76392        42.31064        -2.79098
O         33.77613        63.05060        -0.63519
O         51.96588        56.56032        -1.47782
O         35.84583        65.55519         2.45544
O         42.21001        56.93628         3.10267
O         54.51542        52.63103         2.47727
O         50.88130        48.19147        -0.25070
O         44.62296        61.17400         2.31483
O         36.74362        55.90516        -0.73405
O         66.52000        72.97743        -0.53384
O         58.88465        59.81026        -1.28546
O         49.97309        41.89737        -1.27297
O         61.16703        67.59728        -1.44394
O         33.11761        61.13064         2.29432
O         31.30460        68.04327         1.87867
H         30.38997        68.37882         1.99835
O         37.72466        69.87497        -1.59884
H         38.60334        70.20250        -1.89343
O         35.47908        71.44542        -1.67239
H         36.28924        70.90570        -1.88249
O         53.76917        63.55182        -1.55099
H         52.90235        63.93559        -1.84734
O         45.34525        46.33775        -0.93107
H         44.63322        45.96928        -1.51319
O         47.64413        49.78575         3.17906
H         47.87325        50.69370         3.49778
O         46.28735        45.79439         2.59544
H         45.33852        45.87115         2.86832
O         21.80018        69.15781        -0.21452
H         22.01468        69.27604         0.73324
O         55.04957        58.35573         1.73718
H         54.67972        59.19731         2.08077
O         41.54926        41.67820         0.63005
H         40.67753        41.94328         1.01151
O         40.94095        54.70954         3.57050
H         41.59828        55.18216         4.12740
O         43.07248        44.95201        -2.02470
H         43.06974        44.14657        -2.60453
O         34.31982        48.02702        -0.75822
H         34.27968        48.01612         0.21995
O         42.63722        61.08143        -0.76586
H         41.83095        61.50616        -1.12803
O         57.56296        71.53706         1.87392
H         58.37497        71.05777         2.18366
O         64.19512        69.38827         1.66775
H         63.94348        70.31909         1.88730
O         48.45905        55.95207        -1.48141
H         48.30908        56.85118        -1.86604
O         35.39447        52.35603         1.92438
H         34.52529        52.64218         2.29925
O         43.84023        69.07662        -1.84819
H         43.80099        70.00278        -2.19655
O         53.76105        64.82867         1.93626
H         53.81799        65.74770         2.27528
O         58.83909        68.40682        -1.11543
O         48.93179        73.24382        -2.26752
H         49.77364        72.77174        -2.44756
O         56.37044        59.00401        -1.63595
H         57.22310        59.38930        -1.95475
O         33.91924        73.50974         1.93225
H         33.06763        73.09915         2.19746
O         43.68283        45.71199         2.31903
H         42.83275        46.10530         2.63927
O         57.59322        58.72588         1.87029
H         56.74507        58.37032         2.23878
O         39.04672        60.83202         3.32399
H         39.86155        60.38287         3.63594
O         62.75064        71.77431         1.55639
H         62.96348        72.73311         1.57272
O         46.30785        72.30709         1.71578
H         46.36480        71.41726         2.12393
O         51.23463        54.11949        -1.41721
H         51.63970        54.79199        -2.01570
O         33.33652        57.06036        -1.17978
H         32.59977        57.44526        -1.69812
O         63.84112        63.48186         2.50711
H         63.75008        62.56092         2.82940
O         33.65221        56.41263         2.40750
H         34.45575        56.37000         2.96791
O         49.01533        52.24703         3.09889
H         49.92028        51.96662         3.35832
O         61.35849        64.94589         2.50487
H         62.21688        64.52304         2.76076
O         59.97206        70.07174         1.99543
H         60.79475        70.52593         2.28810
O         49.04639        64.93152         2.10485
H         48.32008        64.39123         2.48375
O         52.57470        62.53773         1.82549
H         52.76466        63.42147         2.22519
O         53.74091        55.24717         2.22592
H         53.95663        54.40144         2.70025
O         33.04598        69.81811        -1.90756
H         33.85363        70.35620        -2.10496
O         57.55796        67.25445         2.10733
H         58.34392        66.77312         2.44787
O         43.81572        71.91673        -2.00112
H         44.58033        72.40874        -2.37171
O         43.97639        41.97103        -3.49840
H         43.76479        41.09384        -3.90236
O         29.18966        72.03710        -2.40825
H         30.05633        72.42903        -2.64867
O         52.50935        48.36313         3.02235
H         53.32658        48.73455         3.41703
O         38.91625        43.03372         0.90385
H         38.78890        43.81922         1.47858
O         41.16296        47.26580         2.46212
H         41.03074        48.08705         2.98523
O         36.61960        52.75396        -1.49875
H         37.46968        52.55328        -1.94201
O         33.27953        65.05107         2.36068
H         34.00314        65.10713         3.02690
O         46.07484        54.60164        -0.85810
H         46.87515        54.96829        -1.31914
O         50.05836        45.10450         2.60681
H         49.11214        44.90806         2.78621
O         49.94104        61.37525        -1.80723
H         49.65823        60.49417        -2.13521
O         32.80659        53.73852         2.22112
H         32.82412        54.59530         2.71320
O         54.14233        70.43234        -2.58710
H         54.52641        71.27234        -2.93814
O         36.18853        71.93426         1.93692
H         35.42698        72.52737         2.16944
O         41.57663        72.18140         1.92023
H         40.76239        72.61565         2.25401
O         49.06324        69.21945         1.90061
H         48.33386        68.67723         2.27268
O         33.40175        65.53045        -1.28325
H         33.48968        64.56724        -1.49698
O         51.36328        64.79854        -1.84719
H         51.19342        65.72034        -2.17042
H         22.88542        75.16868        -0.43689
H         25.34037        75.18179        -0.48642
H         27.76310        75.22282        -0.33957
H         30.21357        75.28243        -0.18731
H         32.67088        75.31107         0.05177
H         35.22181        75.29372        -0.13039
H         37.72582        75.30081        -0.15980
H         40.17021        75.28588        -0.27843
H         42.63040        75.31054        -0.32683
H         45.09082        75.32344        -0.30762
H         47.51606        75.22028        -0.93682
H         50.09050        75.28378        -0.44471
H         52.56284        75.29926        -0.30053
H         55.04762        75.29682        -0.39618
H         57.53214        75.23888        -0.58747
H         59.95222        75.12452        -1.11304
H         62.37717        75.00536        -1.58274
H         64.52819        74.70208        -2.57466
H         66.94445        74.51182        -3.47391
H         22.55269        69.61549        -2.06726
H         20.73759        71.42183        -0.70821
H         20.73416        73.91181        -0.47855
H         24.48431        64.99817        -0.65806
H         23.23222        67.13216        -0.78907
H         27.00974        60.73056        -0.43409
H         25.74301        62.86378        -0.55532
H         29.49478        56.48630         0.05704
H         28.28271        58.60077        -0.26802
H         32.04729        52.39503        -0.41017
H         30.70193        54.39518         0.49615
H         35.49534        48.75041        -2.27593
H         33.39805        50.34902        -1.08158
H         36.93324        43.89256        -1.08898
H         35.81172        46.08522        -1.26695
H         39.56339        39.84419        -2.43745
H         38.24856        41.90131        -1.81286
H         42.02069        35.56293        -2.84431
H         40.78696        37.69807        -2.63157
H         45.37713        32.13547        -2.81118
H         43.25707        33.41972        -3.01859
H         47.48165        33.26070        -2.10405
H         48.68355        35.31550        -1.39771
H         49.85627        37.33715        -0.66527
H         50.91386        39.15579         0.43474
H         52.38949        41.51409         1.03403
H         53.58893        43.60381         0.99643
H         54.84182        45.78934         0.91349
H         56.07359        47.94689         1.03471
H         57.27047        50.01242         1.05525
H         58.56776        52.14373         0.82410
H         59.77490        54.32262         0.76534
H         60.99648        56.47778         0.78003
H         62.25957        58.66792         0.58245
H         63.45446        60.78944         0.60714
H         64.65794        62.90738         0.65591
H         65.90520        64.97679         0.23092
H         67.08689        67.07494        -0.51885
H         68.14225        68.98475        -1.58180
H         69.22966        70.95563        -2.64656
H         69.02839        73.19822        -3.64767
