         647
 CSIRO Nanostructure Databank - Neutral Graphene Oxide Data Set
C          5.85092        31.90616        -1.85541
C          5.91456        33.23774        -2.07874
C          8.17848        27.51484        -1.57743
C          8.20359        28.92687        -1.66562
C          7.03484        29.68382        -1.50822
C          8.32864        31.84050        -1.60074
C          7.02337        31.16460        -1.26270
C          8.37418        33.19246        -1.80369
C          7.15037        33.98594        -1.86804
C          8.34249        36.07355        -1.25218
C          7.15717        35.34947        -1.64128
C          8.33237        37.36600        -0.76907
C         10.69804        23.32134        -1.06086
C         10.64670        24.61805        -1.63449
C          9.44277        25.31861        -1.63512
C         10.63920        27.47348        -2.38331
C          9.31260        26.72197        -2.01500
C         10.67611        28.90042        -1.99346
C          9.50115        29.58875        -1.76686
C         10.82759        31.68725        -1.88600
C          9.56970        31.03243        -1.30178
C         10.86804        33.11580        -1.46681
C          9.66777        33.91433        -1.76469
C         10.73834        35.83960        -0.49626
C          9.64933        35.38395        -1.38884
C         10.70902        37.21123         0.06603
C          9.52395        38.03236        -0.28867
C         10.78821        40.11629         0.13725
C          9.56006        39.39727        -0.09394
C         10.78893        41.52249         0.17809
C         13.38880        19.54021         0.66202
C         13.42811        21.01156         0.31913
C         12.09577        21.62716         0.01019
C         13.04219        22.99408        -1.90347
C         11.92478        22.61587        -0.92318
C         13.05682        24.51169        -2.10240
C         11.90186        25.23275        -2.08936
C         13.18257        27.36339        -2.08757
C         11.93471        26.67668        -2.60565
C         13.15193        28.72204        -1.69504
C         11.97963        29.52084        -1.72065
C         13.21946        31.59834        -1.01952
C         12.05327        30.91367        -1.48569
C         13.20626        32.95303        -0.65334
C         11.93353        33.65147        -0.77436
C         13.49679        35.86731         0.40423
C         11.67128        34.91441        -0.11763
C         13.36624        37.26122         0.26715
C         12.05088        37.95360         0.41122
C         13.23269        40.15760         0.13702
C         12.03719        39.42608         0.23631
C         13.22365        41.57116        -0.02636
C         11.97470        42.28583         0.11096
C         12.78666        44.65548        -0.09536
C         11.87777        43.71326         0.37817
C         13.13769        45.94894         0.38161
C         15.82575        15.35620         1.89259
C         15.78982        16.73894         1.28018
C         14.60801        17.45085         1.19440
C         15.77073        19.36148         0.10869
C         14.54735        18.79533         0.67081
C         15.71185        20.55831        -0.58632
C         14.50358        21.34181        -0.69872
C         15.52474        22.90163        -2.47578
C         14.40024        22.40980        -1.55180
C         15.62309        24.41653        -2.29448
C         14.33902        25.18021        -2.57938
C         15.64613        27.23169        -1.90254
C         14.37762        26.62179        -2.12806
C         15.66114        28.70857        -1.79029
C         14.41855        29.35994        -1.28280
C         15.76212        31.54272        -1.00783
C         14.47148        30.81121        -0.89526
C         15.70148        33.05960        -1.00538
C         14.53248        33.57970        -0.12171
C         15.78484        35.84934        -0.21113
C         14.59338        35.11776        -0.04226
C         15.77746        37.26249        -0.08146
C         14.56250        37.97721         0.05181
C         15.76244        40.21317        -0.00345
C         14.54134        39.44637         0.42344
C         15.76641        41.57165         0.05185
C         14.49669        42.27656        -0.08608
C         15.72445        44.46570        -0.18051
C         14.58841        43.59173        -0.48168
C         15.60070        45.94575        -0.43453
C         14.37389        46.60681         0.13236
C         15.77924        48.62146         0.61342
C         14.53934        47.91726         0.60044
C         15.84289        49.86652         1.29158
C         18.35839        11.94146         4.27995
C         18.33684        13.16598         3.55031
C         17.17055        13.90362         3.45007
C         18.33227        15.47416         1.88189
C         17.11125        15.21477         2.73867
C         18.27613        16.60975         0.98242
C         17.02020        17.27798         0.78697
C         18.18468        19.09283        -0.33100
C         17.00251        18.57019         0.15238
C         18.18015        20.50740        -0.72325
C         16.91328        21.01428        -1.31783
C         18.18125        22.86584        -2.67749
C         16.86719        22.18350        -2.24485
C         18.09659        24.41451        -2.64491
C         16.82436        25.08730        -2.22227
C         18.11499        27.23225        -1.66300
C         16.84562        26.52562        -1.98978
C         18.17622        28.67723        -1.55845
C         16.94899        29.47057        -1.72937
C         18.17934        31.67193        -1.59974
C         16.91866        30.89846        -1.29621
C         18.22207        33.05996        -0.99990
C         17.04928        33.69311        -0.68912
C         18.36878        35.85672        -0.31839
C         17.06520        35.09976        -0.24336
C         18.33568        37.32869        -0.45580
C         17.06691        38.00528        -0.07569
C         18.18988        40.23810        -0.70996
C         17.05228        39.49511        -0.07308
C         18.22863        41.68383        -0.51917
C         17.09569        42.29078         0.25120
C         18.27731        44.56432        -0.27395
C         17.04334        43.81097         0.08157
C         18.20508        45.93273        -0.41818
C         16.92075        46.68421        -0.40105
C         18.22466        48.78199         0.18153
C         16.98122        48.06273         0.11435
C         18.23695        50.13906         0.74124
C         17.01022        50.62084         1.40289
C         17.79605        52.79274         2.37277
C         16.93224        51.70255         2.35412
C         18.16516        53.64548         3.42305
C         20.74286         8.12297         6.38302
C         20.43803         9.44779         6.01613
C         19.41980         9.98441         5.22937
C         20.79901        11.79240         4.02844
C         19.54528        11.26662         4.57356
C         20.74611        12.87476         3.07091
C         19.55236        13.58952         2.87661
C         20.61649        14.95425         1.01233
C         19.48588        14.72626         1.99358
C         20.70550        16.37953         0.49676
C         19.47354        17.08982         0.39795
C         20.71243        19.02809        -0.66186
C         19.41206        18.25635        -0.54792
C         20.71185        20.37792        -0.91791
C         19.45318        21.20631        -0.95197
C         20.37481        23.33962        -1.64443
C         19.36309        22.45555        -1.77108
C         20.68607        24.39383        -2.67351
C         19.37809        25.19763        -2.67311
C         20.70944        27.25151        -2.14629
C         19.47488        26.50634        -1.96851
C         20.76844        28.62634        -1.68733
C         19.42122        29.36352        -1.31239
C         20.71345        31.61344        -1.42529
C         19.43386        30.87075        -1.23579
C         20.69241        33.09830        -1.45760
C         19.50464        33.76136        -1.07456
C         20.75520        35.87091        -0.97532
C         19.56209        35.15462        -0.81825
C         20.82392        37.34432        -0.64637
C         19.47544        38.02186        -0.73380
C         20.74493        40.21732        -1.14619
C         19.45526        39.47524        -1.03912
C         20.65184        41.74116        -1.25104
C         19.57343        42.32594        -0.32351
C         20.70161        44.52658        -0.62444
C         19.51976        43.84512        -0.44421
C         20.73680        45.99330        -0.75763
C         19.41418        46.74376        -0.66836
C         20.68955        48.90495        -0.41857
C         19.41373        48.17289        -0.28528
C         20.72182        50.27702         0.25319
C         19.45855        50.81671         0.80229
C         20.71883        52.70357         1.84905
C         19.59479        52.16713         1.27931
C         20.60478        54.10257         2.48553
C         19.39981        54.36054         3.44347
C         20.73890        56.10674         4.64842
C         19.53218        55.34724         4.41506
C         20.76355        57.25080         5.48797
C         23.31719         5.80367         7.70744
C         22.11600         6.39738         7.38706
C         23.29682         8.33779         6.43278
C         22.04388         7.68424         6.76835
C         23.37364         9.49455         5.58490
C         22.28134        10.36686         5.42706
C         23.19551        11.32785         3.38591
C         22.05178        11.18346         4.30407
C         23.17130        12.46982         2.40457
C         21.94598        13.31382         2.35042
C         23.13459        14.66435         0.62280
C         21.93329        14.38672         1.49614
C         23.13784        16.05112        -0.04444
C         21.89028        16.87711        -0.06749
C         23.16896        18.80275        -0.98836
C         21.95602        18.23570        -0.61279
C         23.24223        20.16005        -1.54998
C         21.95658        21.00130        -1.40327
C         23.26682        23.04826        -1.95898
C         22.21023        22.42047        -1.31534
C         23.20759        24.47858        -2.26283
C         21.98110        25.15954        -2.41758
C         23.19024        27.31436        -2.39831
C         21.95172        26.58833        -2.43719
C         23.20510        28.75147        -2.31514
C         21.84970        29.43785        -2.39021
C         23.16821        31.70073        -2.12619
C         21.88389        30.93328        -2.06738
C         23.18272        33.10333        -1.64215
C         21.93019        33.79605        -1.50958
C         23.20456        35.93481        -1.32680
C         21.94944        35.20197        -1.29391
C         23.20614        37.32042        -1.34402
C         21.88253        38.03281        -1.52377
C         23.22123        40.23601        -1.39071
C         21.91280        39.53355        -1.28710
C         23.22349        41.73911        -1.17980
C         21.95792        42.44623        -0.95911
C         23.21196        44.52822        -0.57423
C         21.96102        43.80088        -0.70663
C         23.20535        45.99610        -0.59004
C         22.02768        46.69698        -0.57269
C         23.27044        48.85580        -0.17934
C         22.02537        48.20422        -0.78833
C         23.21794        50.17046         0.44122
C         22.00497        50.83075         0.74898
C         23.17813        52.64483         1.95719
C         21.99218        52.03584         1.58158
C         23.17122        54.04501         2.53714
C         21.87647        54.32879         3.32479
C         23.14432        56.44934         4.18646
C         21.91442        55.67838         4.01192
C         23.19291        57.51674         5.18366
C         21.97533        57.93011         5.79717
C         23.23304        59.61702         7.02930
C         22.01888        59.01312         6.71777
C         24.53214         6.44944         7.39174
C         25.84347         8.36857         6.46462
C         24.52560         7.67618         6.74604
C         25.82759         9.21478         5.20834
C         24.55900         9.78812         4.79591
C         25.66885        11.08902         2.98353
C         24.48514        10.72100         3.77411
C         25.68848        12.41047         2.31188
C         24.46391        13.05664         1.97406
C         25.68172        14.91741         0.97346
C         24.45298        14.24231         1.22980
C         25.70213        16.21360         0.36118
C         24.46875        16.73983        -0.28785
C         25.50547        19.11026        -0.22584
C         24.52825        18.13680        -0.90274
C         25.69712        20.35239        -1.09526
C         24.50016        20.93558        -1.60814
C         25.71135        23.00729        -2.32018
C         24.47204        22.27800        -2.04332
C         25.69861        24.49317        -2.34913
C         24.45094        25.18700        -2.39030
C         25.66871        27.32111        -2.56953
C         24.43269        26.61199        -2.46197
C         25.66382        28.76374        -2.45000
C         24.39645        29.45447        -2.31860
C         25.59864        31.51207        -1.52930
C         24.47495        30.97490        -2.40177
C         25.62690        32.98358        -1.22789
C         24.39555        33.77995        -1.44994
C         25.69390        35.87171        -1.18004
C         24.43649        35.18708        -1.32116
C         25.71755        37.28274        -1.17147
C         24.49158        38.05245        -1.59361
C         25.63681        40.16141        -0.78654
C         24.47246        39.49684        -1.14244
C         25.59098        41.58177        -0.46871
C         24.44603        42.36257        -0.64923
C         25.60568        44.51207        -0.02198
C         24.37759        43.78476        -0.40098
C         25.70823        45.91576        -0.48362
C         24.49706        46.74561        -0.92004
C         25.71371        48.91250        -0.03453
C         24.48751        48.20686        -0.37152
C         25.67661        50.16852         0.66215
C         24.45873        50.79374         0.84853
C         25.71053        52.70492         1.91115
C         24.43100        52.25761         1.22100
C         25.71689        53.79996         2.91635
C         24.40312        54.35875         3.44082
C         25.73518        56.36176         4.32698
C         24.47720        55.84235         3.74406
C         25.68591        57.50319         5.10119
C         24.43889        58.08031         5.55751
C         24.43369        59.15217         6.48050
C         26.99088         9.57107         4.59608
C         28.21742        11.24059         3.14669
C         27.01360        10.47289         3.43412
C         28.18095        12.43155         2.42018
C         26.91221        13.03543         2.02093
C         28.12198        15.08670         1.35130
C         26.91095        14.34788         1.44565
C         28.09889        16.43772         0.91401
C         26.85674        16.99683         0.45069
C         28.12296        19.16457        -0.04194
C         26.81842        18.45405         0.17905
C         28.15381        20.44537        -0.77892
C         26.91650        21.01187        -1.23289
C         28.24108        23.09072        -1.80035
C         27.00826        22.29778        -1.95178
C         28.19667        24.59513        -1.83009
C         26.91154        25.20301        -2.36500
C         28.14415        27.31993        -2.88919
C         26.89167        26.60626        -2.57128
C         28.13117        28.84225        -2.75151
C         26.87086        29.46163        -2.32204
C         28.17666        31.51490        -1.42436
C         26.89005        30.76051        -1.62037
C         28.13525        32.98496        -1.21012
C         26.92637        33.68811        -1.13581
C         28.14634        35.82609        -0.97229
C         26.91802        35.12150        -1.07194
C         28.14865        37.25476        -0.85955
C         26.92287        37.98608        -0.93774
C         28.12511        40.06637        -0.49875
C         26.91299        39.41947        -0.73776
C         28.11380        41.47574        -0.03899
C         26.81652        42.21610         0.05873
C         28.17593        44.38158        -0.00890
C         26.86942        43.71145         0.14810
C         28.19304        45.76039        -0.24273
C         26.96925        46.37248        -0.70271
C         28.19279        48.80107         0.29043
C         26.99796        48.50372        -0.42845
C         28.26959        50.06597         1.06688
C         26.96032        50.78990         1.14600
C         28.25067        52.80170         1.93102
C         27.00236        52.30934         1.22236
C         28.20478        53.91664         2.75192
C         26.98204        54.53388         3.19327
C         26.95757        55.70020         3.93913
C         29.38794        13.12586         2.15875
C         30.58505        15.18184         1.62900
C         29.39427        14.46277         1.69225
C         30.57232        16.66709         1.49544
C         29.32254        17.17768         0.83401
C         30.60556        19.03150        -0.15217
C         29.38300        18.42520         0.17901
C         30.60763        20.26873        -0.94581
C         29.36210        21.04355        -1.09885
C         30.70397        23.10940        -1.71046
C         29.41965        22.42456        -1.54245
C         30.69574        24.51905        -2.14874
C         29.48273        25.20979        -2.31205
C         30.68626        27.40363        -2.63949
C         29.46645        26.55475        -3.01453
C         30.67521        28.75757        -2.49970
C         29.44321        29.63642        -2.73208
C         30.62706        31.55938        -1.59463
C         29.43397        30.89609        -1.87436
C         30.61791        32.96126        -1.17199
C         29.38425        33.68344        -1.12595
C         30.62144        35.80687        -0.91031
C         29.38192        35.10302        -0.97860
C         30.63325        37.25018        -0.77510
C         29.38863        37.94904        -0.71559
C         30.62297        40.03423        -0.35145
C         29.38392        39.36234        -0.53096
C         30.64607        41.50689        -0.29581
C         29.37730        42.25896        -0.17985
C         30.61916        44.43529         0.15849
C         29.40616        43.71305         0.11238
C         30.62971        45.85594         0.22363
C         29.37492        46.51107         0.01672
C         31.07030        48.87272         0.83804
C         29.19069        47.86162         0.48466
C         30.83973        50.25322         0.78257
C         29.56629        50.83710         1.14256
C         29.48682        52.14876         1.60501
C         31.84267        17.23467         0.93287
C         33.09853        19.12124        -0.05022
C         31.86227        18.41924         0.21102
C         33.14853        20.38273        -0.62760
C         31.91281        20.96806        -1.20718
C         33.18747        22.99966        -1.90085
C         31.87972        22.41083        -1.55735
C         33.21040        24.45726        -2.34326
C         31.93012        25.18113        -2.40270
C         33.30184        27.33882        -2.67773
C         31.95918        26.61975        -2.71787
C         33.29037        28.82262        -2.39007
C         31.93932        29.53889        -2.32199
C         33.04577        31.47421        -1.10408
C         31.86761        30.86842        -1.70387
C         33.11564        32.94757        -0.99408
C         31.83747        33.65841        -1.00680
C         33.10918        35.78332        -0.97551
C         31.82132        35.07210        -0.90599
C         33.13198        37.28329        -0.88755
C         31.84837        37.96832        -0.67741
C         33.13091        40.09190        -0.32297
C         31.85966        39.36195        -0.42196
C         33.15706        41.47624        -0.11391
C         31.89433        42.18750         0.13842
C         33.16023        44.40347         0.14766
C         31.88472        43.68000         0.31791
C         33.11401        45.80624         0.12257
C         31.92011        46.57671         0.28100
C         32.06680        47.99436         0.33626
C         34.35496        21.13443        -0.71695
C         35.62433        23.11627        -1.40650
C         34.41340        22.39560        -1.32000
C         35.69399        24.46670        -1.80381
C         34.48243        25.19735        -2.15851
C         35.80194        27.27121        -2.24748
C         34.51948        26.55969        -2.32357
C         35.74397        28.77320        -1.90767
C         34.44640        29.39269        -1.68786
C         35.61711        31.46683        -0.84933
C         34.37854        30.68407        -1.01653
C         35.60805        32.87561        -0.81070
C         34.32980        33.58986        -0.86442
C         35.58213        35.80919        -0.97102
C         34.34609        35.05743        -0.50878
C         35.62568        37.26642        -0.69184
C         34.40070        37.98263        -0.58057
C         35.61245        40.11924        -0.28687
C         34.38097        39.38195        -0.38910
C         35.59980        41.49525        -0.16363
C         34.37356        42.22958        -0.06143
C         34.35051        43.64389         0.03827
C         36.93436        25.15189        -1.72768
C         38.23821        27.26234        -1.71283
C         37.03366        26.54133        -1.89124
C         38.25077        28.65721        -1.45661
C         36.93789        29.29718        -1.19766
C         38.15102        31.46342        -0.63679
C         36.88429        30.74207        -0.71976
C         38.10134        32.91372        -0.23708
C         36.83010        33.58883        -0.69720
C         38.12756        35.78942        -0.76488
C         36.88152        35.02871        -0.96604
C         38.08086        37.18137        -0.67022
C         36.86821        37.91250        -0.59609
C         36.94504        39.39546        -0.30499
C         39.40445        29.41287        -1.23449
C         40.59149        31.56207        -0.82193
C         39.35616        30.80000        -0.87752
C         40.58479        32.92392        -0.71477
C         39.35957        33.67082        -0.60655
C         39.34838        35.04866        -0.70148
O         18.15499        31.90388        -2.99506
O         27.40826        19.25483         1.27181
O         20.05439        46.48731        -1.97720
O          9.69160        27.12197        -3.39934
O         30.05628        48.17379         1.53284
O         33.31951        23.34823        -3.31357
O         13.56017        44.19884        -1.19752
O         23.85124        15.89646        -1.31762
O         22.38008        20.42272        -2.68516
O         27.42715        41.59969         1.25115
O         21.36532        10.41713         6.47680
O         33.45471        30.75815         0.13203
O         31.31836        20.11465        -2.24364
O         16.21401        29.30479        -3.01152
O         12.45840        35.15619         1.01256
O         25.79158        52.36926         3.32390
O         17.87036        35.35088         0.96826
O         14.45626        29.75849         0.13359
O         32.80146        29.60517        -3.52995
O         16.26073        44.34054         1.20933
O         18.58817        25.08602        -3.87486
O         11.16319        37.41837         1.43118
O         16.13615        46.47953        -1.66513
O         27.96417        28.18642        -4.06672
O         23.81725        56.77519         2.88724
O         30.01122        42.07269        -1.50959
O         17.33506        38.78123         1.18520
O         22.89276        11.10521         1.94904
O         20.36206        28.81805        -0.32806
O         18.76318        21.35356         0.35253
O         27.57794        30.69317        -0.32361
O         26.29081        10.00016         2.24013
O         12.71870        22.38012        -3.12839
O         27.49418        50.09426         2.31744
O         36.72151        29.57664         0.20389
O          9.93403        34.97114        -2.76357
O         27.12011        47.55925        -1.45010
O         32.72386        26.94778        -3.94479
O         36.15393        35.39655        -2.22397
O         26.11936        44.22742         1.31901
O         20.59426        50.13744        -1.20842
O         23.31631        41.16207        -2.54451
O         31.83329        42.76950         1.48578
O         33.24113        36.56626        -2.19133
O         35.99429        28.30453        -3.26470
O         16.82831        20.81967        -2.77789
O         22.26149        31.64916        -3.29661
O         22.88025        13.66538        -0.52256
O         20.23947        31.24739        -0.07641
O         26.52817        22.35098        -3.34519
O         25.30876        31.95055        -0.18991
O         18.88568        26.49298        -0.63974
O         21.29667        23.18874        -0.59571
O         18.48830        53.01369         1.16223
O         18.48069        39.77802        -2.10241
O         29.63162        26.22754        -4.41870
H         29.25848        26.97481        -4.93946
O         22.17784        48.37988        -2.21952
H         21.43503        47.89481        -2.64769
O         13.84457        21.67815         1.57354
H         14.66942        21.24140         1.87732
O         21.43132        29.31406        -3.77903
H         21.76628        30.10310        -4.26481
O         14.64944        39.42160         1.89070
H         15.56906        39.12207         2.09527
O         38.04525        32.95697         1.24974
H         38.74420        32.35437         1.58362
O         17.40056        42.08666         1.68482
H         16.81465        42.71035         2.17572
O          6.89257        31.29558         0.22244
H          6.68368        32.23651         0.41046
O         20.29487        42.04803        -2.61625
H         21.05447        41.80010        -3.18675
O         15.40002        33.44361        -2.37509
H         16.11964        33.06614        -2.93732
O         24.88127        31.31097        -3.75348
H         24.07528        31.28158        -4.31618
O         20.01156        41.99687         1.02851
H         19.21282        42.04476         1.61530
O         20.87511        23.75073        -3.94203
H         19.98607        23.54240        -4.32577
O         34.32364        35.13732         0.94822
H         34.92061        34.44672         1.30841
O         24.24131        53.75871         4.75809
H         24.69367        52.87949         4.71834
O         27.07373        52.83167        -0.12175
H         26.15155        52.99362        -0.44294
O         10.68066        31.61066        -3.32864
H         11.39275        32.14159        -3.74266
O         24.14547        13.26861        -1.09887
H         24.24056        12.33350        -0.79137
O         21.52778        37.86054        -2.92684
H         20.68199        38.33199        -3.09140
O         17.01930        16.26974         3.74750
H         17.80243        16.19591         4.33210
O         28.14704        24.97696        -0.38178
H         27.30254        24.63993        -0.01200
O         29.61277        30.17680        -4.07267
H         29.25804        29.50725        -4.70245
O         23.26249        54.91955         1.39584
H         22.34862        55.10091         1.06808
O         21.72294        53.35190         4.38361
H         22.55478        53.36892         4.92255
O         24.40647        52.97625        -0.06577
H         23.57091        52.74009        -0.52337
O         14.74573        33.05559         1.20018
H         14.04762        33.41402         1.78844
O         30.52103        17.20997         2.90539
H         30.12263        18.10626         2.85504
O         20.23647        14.14571        -0.15389
H         21.04073        14.00710        -0.70812
O         15.15488        22.64463        -3.84959
H         14.19516        22.32693        -3.84208
O         14.32119        25.20747        -4.03496
H         14.53209        24.28778        -4.34196
O         24.53138        46.82190        -2.36564
H         25.33368        47.33335        -2.61162
O         18.43788        22.47613        -4.03353
H         18.01299        21.59900        -4.17503
O         12.10652        26.62187        -4.03959
H         11.25396        26.32622        -4.42795
O         21.28379        37.49346         0.72246
H         20.62040        37.08152         1.31629
O         20.52552        55.07529         1.42061
H         19.72817        54.85315         0.88918
O         19.24505        17.66559        -1.89414
H         18.48667        17.04441        -1.85848
O         25.03326        17.97671        -2.24559
H         24.53573        17.23146        -2.65367
O         37.84979        40.03379        -1.21921
H         37.50842        39.90294        -2.12767
O         26.92648         7.43894         6.43152
H         26.80197         6.84992         5.65949
O         24.57511        38.13492        -3.07009
H         23.67150        38.33704        -3.40552
O         24.85388        19.54525         0.99294
H         25.56936        19.86756         1.59011
O          9.69575        31.00443         0.14303
H          8.78674        30.88639         0.51377
O         15.79798        14.35927         0.86814
H         16.60107        14.45689         0.31504
H          4.90641        31.36183        -2.00444
H          5.02269        33.78900        -2.41400
H          7.28623        27.00708        -1.18352
H          6.07437        29.15346        -1.41715
H          6.19905        35.89248        -1.64064
H          7.38726        37.93150        -0.75322
H          9.76142        22.85739        -0.71365
H          8.57236        24.85586        -1.14333
H          8.65124        39.98918        -0.28380
H          9.82341        42.04857         0.22011
H         12.45956        19.11694         1.07285
H         11.30028        21.46110         0.75681
H         11.07132        44.03794         1.05367
H         12.42162        46.46825         1.03788
H         14.93019        15.19474         2.54062
H         13.68126        17.00337         1.58528
H         13.66976        48.42496         1.04537
H         14.93251        50.22941         1.79127
H         17.40865        11.55209         4.67504
H         16.26507        13.55678         3.97075
H         16.16395        51.61956         3.13788
H         17.53171        53.69209         4.32219
H         19.94763         7.36375         6.32899
H         18.49138         9.41702         5.06538
H         18.65031        55.60011         5.02419
H         19.82780        57.59147         5.95523
H         23.33415         4.82563         8.20776
H         21.17340         5.88623         7.63119
H         23.25474        60.45486         7.74026
H         21.08779        59.36270         7.18552
H         25.49267         5.97951         7.64583
H         26.04971         9.06117         7.33125
H         26.62176        57.93791         5.48373
H         25.38660        59.61172         6.77910
H         27.95022         9.23201         5.01653
H         29.17042        10.91271         3.58940
H         29.15028        54.33032         3.13766
H         27.90989        56.18475         4.20387
H         30.34131        12.65494         2.44091
H         31.53550        14.67862         1.86043
H         31.65257        50.93408         0.48659
H         30.42369        52.68058         1.83684
H         32.79190        16.78616         1.26382
H         34.03066        18.67019         0.32275
H         34.06478        46.35521         0.03544
H         33.04702        48.40918         0.05332
H         35.27619        20.70472        -0.29492
H         36.54871        22.62658        -1.06443
H         36.55493        42.03950        -0.12551
H         35.31017        44.18120        -0.00799
H         37.83491        24.57815        -1.46241
H         39.18247        26.70314        -1.63273
H         39.02445        37.73677        -0.56284
H         37.40927        39.51384         0.71544
H         40.38931        28.94608        -1.38186
H         41.54197        31.02424        -0.94951
H         41.53010        33.48399        -0.77899
H         40.30056        35.59684        -0.77934
