         429
 CSIRO Nanostructure Databank - Neutral Graphene Oxide Data Set
C          1.43152         2.09043        -0.92962
C          1.32602         3.48390        -0.57209
C          2.54868         1.37300        -0.67590
C          2.40235         4.19727        -0.09323
C          1.21125         6.39571        -0.28489
C          1.18917         7.77548        -0.26580
C          2.39538         5.66614        -0.00394
C          2.36866         8.52246        -0.03102
C          1.15720        10.71118        -0.16410
C          1.15435        12.09444        -0.10001
C          2.35932         9.97337        -0.02562
C          2.34303        12.82651         0.10301
C          1.12741        15.09803        -0.04264
C          1.15105        16.44024        -0.17739
C          2.30373        14.29005         0.35481
C          2.35423        17.26304         0.05979
C          2.45381        18.60822        -0.53002
C          3.63933         1.97765         0.16126
C          3.66649         3.49374         0.09614
C          4.97513         1.30525         0.02337
C          4.82128         4.17929         0.33335
C          3.57376         6.37860         0.29040
C          3.57670         7.80581         0.22897
C          4.75906         5.60247         0.85595
C          4.79488         8.56183         0.33707
C          3.57707        10.69445         0.12211
C          3.57928        12.13396         0.18080
C          4.79374         9.94466         0.22529
C          4.82449        12.87121         0.20234
C          3.64015        15.02762         0.46210
C          3.66810        16.51864         0.32134
C          4.87199        14.26938         0.17337
C          4.91640        17.16909        -0.09857
C          3.65158        19.24019        -0.62042
C          4.91099        18.55500        -0.39728
C          6.16568         1.99234         0.26561
C          6.12149         3.48161         0.19524
C          7.37940         1.34705         0.52642
C          7.38829         4.23892         0.35520
C          6.09241         6.36297         0.82507
C          6.08749         7.87554         0.60120
C          7.37028         5.68877         0.59699
C          7.33960         8.49963         0.18072
C          6.10411        10.64799         0.19455
C          6.09886        12.13788         0.12159
C          7.21553         9.84453        -0.48516
C          7.29416        12.86072        -0.32618
C          6.09334        14.98558        -0.08177
C          6.11263        16.40698        -0.20835
C          7.31359        14.25178        -0.30159
C          7.34414        17.08653        -0.51876
C          6.13600        19.22838        -0.59224
C          7.35636        18.53210        -0.60580
C          8.59573         2.06878         1.03338
C          8.64444         3.52538         0.62840
C          9.84931         1.34071         0.65011
C          9.81799         4.23477         0.60955
C          8.57136         6.39422         0.50369
C          8.54781         7.82949         0.27447
C          9.83032         5.67832         0.43858
C          9.79868         8.52769         0.03299
C          8.53985        10.60353        -0.58353
C          8.53263        12.11731        -0.59752
C          9.80107         9.92250        -0.23042
C          9.80583        12.83630        -0.41370
C          8.56031        14.96119        -0.52707
C          8.54057        16.36829        -0.67377
C          9.79410        14.25547        -0.49045
C          9.78199        17.07832        -1.15677
C          8.60391        19.21970        -0.63289
C          9.81996        18.53967        -0.75211
C         11.06140         2.00976         0.52112
C         11.09217         3.48570         0.71476
C         12.28253         1.33337         0.29664
C         12.36219         4.22425         0.34061
C         11.03907         6.37978         0.24529
C         11.02480         7.81297         0.06991
C         12.29437         5.68354         0.08418
C         12.24855         8.52463        -0.09779
C         11.00809        10.66916        -0.18390
C         10.98997        12.10025        -0.25496
C         12.26045         9.95166        -0.10849
C         12.22823        12.85618        -0.00497
C         11.04999        14.99307        -0.56284
C         11.05350        16.34783        -0.81989
C         12.29098        14.27822        -0.34872
C         12.34151        17.07759        -1.08441
C         11.05559        19.19947        -0.61893
C         12.30220        18.53440        -0.67362
C         13.51249         2.01178         0.01978
C         13.50417         3.43610        -0.10826
C         14.69630         1.27654        -0.21729
C         14.62603         4.13442        -0.74153
C         13.45242         6.37217        -0.24781
C         13.48234         7.81448        -0.22756
C         14.62742         5.63973        -0.78709
C         14.70658         8.50267        -0.31283
C         13.50532        10.62624        -0.13804
C         13.54495        12.07824         0.06303
C         14.73344         9.92236        -0.25779
C         14.78975        12.80890        -0.18177
C         13.52753        14.94027        -0.37908
C         13.57065        16.35769        -0.58992
C         14.77564        14.21253        -0.25771
C         14.76741        17.05994        -0.46863
C         13.50933        19.20226        -0.47933
C         14.76689        18.51570        -0.46386
C         15.94497         1.91922        -0.62252
C         15.92626         3.39692        -0.89220
C         17.25575         1.25588        -0.45197
C         17.16502         4.19100        -0.66738
C         15.93562         6.39878        -1.05462
C         15.98548         7.70501        -0.22837
C         17.16768         5.54865        -0.71074
C         17.21752         8.52704        -0.51966
C         15.98399        10.64544        -0.28418
C         16.00706        12.07095        -0.27941
C         17.22401         9.92178        -0.38033
C         17.24193        12.78739        -0.35544
C         16.01609        14.92552        -0.29752
C         16.01291        16.35449        -0.30359
C         17.24612        14.21235        -0.29915
C         17.22624        17.06620        -0.18659
C         15.97438        19.19926        -0.33680
C         17.22135        18.51125        -0.21109
C         18.42030         1.97379        -0.32024
C         18.34179         3.45311        -0.11998
C         19.71626         1.36147        -0.43876
C         19.59505         4.19304         0.23759
C         18.47019         6.27157        -0.71472
C         18.46117         7.79454        -0.80159
C         19.70654         5.61175        -0.21871
C         19.76133         8.52979        -0.68674
C         18.46514        10.67577        -0.38774
C         18.47660        12.05810        -0.38718
C         19.73284         9.92041        -0.08475
C         19.76683        12.82193        -0.61640
C         18.48656        14.93884        -0.17233
C         18.46187        16.35971        -0.04997
C         19.72600        14.25365        -0.14687
C         19.67999        17.06797         0.16817
C         18.43198        19.20057        -0.11226
C         19.67207        18.52357         0.10696
C         20.91367         2.02843        -0.17269
C         20.84345         3.33870         0.58332
C         22.17440         1.40542        -0.30364
C         22.13742         4.15141         0.55857
C         20.88847         6.29801        -0.12294
C         21.01628         7.73210        -0.47914
C         22.11536         5.62974         0.37168
C         22.27254         8.47107        -0.07983
C         21.01697        10.70835        -0.22893
C         21.01546        12.08407        -0.19297
C         22.26926         9.96348         0.00758
C         22.21772        12.83376         0.07842
C         20.92480        14.94309         0.11954
C         20.88509        16.35145         0.32343
C         22.19420        14.22257         0.22252
C         22.12025        17.06682         0.67773
C         20.86670        19.23160         0.16538
C         22.10469        18.58926         0.59790
C         23.40640         2.04636        -0.00432
C         23.42917         3.46223         0.32024
C         24.64001         1.38687        -0.15161
C         24.61444         4.16988         0.31793
C         23.38945         6.35950         0.32975
C         23.26816         7.75474         0.81631
C         24.68770         5.66501         0.10936
C         24.57242         8.49388         0.91485
C         23.42361        10.65386         0.58404
C         23.53361        12.08624         0.12821
C         24.59165         9.90383         0.91911
C         24.63861        12.84413         0.78566
C         23.41406        14.95224         0.50721
C         23.41477        16.34935         0.64026
C         24.64036        14.22107         0.77929
C         24.62554        17.08620         0.83442
C         23.41022        19.32800         0.38651
C         24.64457        18.51770         0.71903
C         25.87358         2.04981         0.08054
C         25.88555         3.48422         0.35039
C         27.09523         1.39099        -0.07036
C         27.06082         4.17006         0.64918
C         25.86118         6.30344         0.81598
C         25.76927         7.70987         1.21379
C         27.06759         5.60535         0.89446
C         27.10010         8.47703         1.32870
C         25.84060        10.61302         1.11715
C         25.79639        12.09355         1.38877
C         27.05706         9.94198         1.16455
C         27.09583        12.79371         1.10498
C         25.86721        14.94617         1.09647
C         25.86413        16.39490         1.08796
C         27.06788        14.22625         1.15130
C         27.06284        17.12329         1.24946
C         25.83968        19.20394         0.77454
C         27.09066        18.54460         1.01480
C         28.32745         2.03117         0.26750
C         28.30418         3.37481         0.96709
C         29.51145         1.36572         0.14707
C         29.59897         4.15199         0.80047
C         28.33331         6.30684         1.07109
C         28.35209         7.73456         1.11306
C         29.57943         5.58701         0.94163
C         29.54441         8.49171         1.02444
C         28.30772        10.64769         1.03608
C         28.28428        12.08099         0.98015
C         29.52684         9.91012         0.96150
C         29.53452        12.81897         0.58310
C         28.33815        14.92037         1.42272
C         28.32170        16.42494         1.56684
C         29.60756        14.25483         1.07355
C         29.63559        17.15475         1.47404
C         28.27910        19.27452         0.96218
C         29.59655        18.67662         1.19650
C         30.80342         1.90772         0.68550
C         30.80122         3.45200         0.76115
C         31.94735         1.32372        -0.13471
C         32.03439         4.19172         0.82256
C         30.80504         6.30667         0.91399
C         30.84373         7.76938         1.29254
C         32.02896         5.62414         0.78459
C         32.07916         8.49205         0.81612
C         30.78546        10.64194         0.82968
C         30.78351        12.01438         0.81049
C         32.05422         9.90668         0.69292
C         32.05767        12.75891         0.71878
C         30.76818        14.97542         0.94013
C         30.83900        16.41926         1.06787
C         32.04692        14.24444         0.73079
C         32.01297        17.12282         0.73615
C         30.81105        19.28689         0.67892
C         32.00933        18.57698         0.61483
C         33.23723         1.52993         0.26073
C         33.29385         3.57664         0.96469
C         34.50539         1.25375        -0.33882
C         34.52323         4.19078         0.61980
C         33.28922         6.32959         0.68811
C         33.27319         7.77954         0.61521
C         34.50016         5.63582         0.54682
C         34.49349         8.48099         0.34980
C         33.23793        10.59349         0.37497
C         33.19704        12.05705         0.01559
C         34.47239         9.90509         0.26559
C         34.50017        12.78719         0.24816
C         33.17339        14.95611         0.01855
C         33.21874        16.43428         0.34480
C         34.49111        14.22766         0.20993
C         34.37673        17.13094         0.05652
C         33.22817        19.25864         0.29358
C         34.42522        18.57662         0.08217
C         35.65598         2.03699        -0.11392
C         35.67852         3.41850         0.30458
C         36.89928         1.41776        -0.53629
C         36.99904         4.15299         0.39250
C         35.73937         6.33984         0.26879
C         35.72306         7.78818         0.17405
C         36.90463         5.62661         0.06402
C         36.93020         8.51465        -0.01267
C         35.69790        10.63234         0.12911
C         35.68709        12.07032         0.22604
C         36.92921         9.94264         0.01494
C         36.97614        12.76342         0.34713
C         35.66166        14.94627         0.11415
C         35.60880        16.37801        -0.25791
C         36.96409        14.28983         0.27518
C         36.88777        17.13378        -0.40939
C         35.66318        19.27069        -0.16136
C         36.87453        18.61873        -0.36325
C         38.11698         2.04953        -0.53695
C         38.19670         3.46300        -0.22354
C         39.31422         1.39204        -1.05160
C         39.38473         4.12422        -0.37129
C         38.12073         6.35007        -0.35719
C         38.17554         7.82035        -0.18746
C         39.41216         5.59353        -0.51543
C         39.37756         8.49847        -0.32914
C         38.17442        10.65641        -0.14199
C         38.21183        12.07250        -0.05188
C         39.38661         9.93942        -0.35697
C         39.40020        12.80225        -0.29050
C         38.20583        14.96548        -0.13158
C         38.17680        16.43279        -0.13736
C         39.40036        14.26331        -0.31268
C         39.44110        17.19275        -0.47752
C         38.09006        19.28490        -0.69677
C         39.29489        18.60091        -0.91578
C         40.51434         2.00821        -1.05697
C         40.68122         3.35132        -0.39027
C         41.84655         4.17039        -0.85980
C         40.69177         6.30346        -0.51007
C         40.72219         7.79027        -0.24007
C         41.85618         5.54745        -0.74131
C         41.77895         8.54335        -1.00871
C         40.58248        10.65614        -0.64481
C         40.59399        12.08143        -0.61568
C         41.73251         9.88988        -1.09934
C         41.78504        12.82982        -0.88241
C         40.61116        14.97470        -0.67659
C         40.62028        16.39692        -0.86520
C         41.78589        14.20406        -0.91644
C         41.67231        17.09610        -1.48069
C         40.43114        19.21326        -1.49739
C         41.58363        18.47361        -1.75150
O         18.52406         6.96288        -2.00931
O         38.99231        17.02057         0.92030
O          6.45416        11.35478         1.40900
O          6.84314         3.93761        -1.02846
O          2.91347        14.60475         1.64962
O         18.56763         3.94957         1.25493
O         29.80007        18.10799         2.55292
O         20.61317         8.21808        -1.80415
O         32.45912        13.49898         1.92587
O         22.08713         5.01278         1.77155
O         36.19349        16.61473        -1.60712
O          8.57919        11.32280        -1.86896
O         26.38274         8.01682         2.51951
O         37.11103        13.57673         1.55617
O         33.36499         2.27592         1.47135
O          2.94964        17.19301         1.39446
O         11.98868         3.92238         1.77064
O         15.92044         2.51146        -2.04901
O         22.82565         9.17341        -1.20570
O         38.57587         5.97437        -1.72280
O         21.99659        17.91008         1.88679
O         12.85074        12.51948         1.28577
O         28.29919        15.56021         2.75322
O          6.16534         7.30203         1.95671
O         14.23056         4.86492        -1.97616
O         40.98197         3.05995         1.02947
H         40.15064         2.74176         1.44397
O         23.96781        11.94971        -1.28675
H         23.35833        11.31527        -1.72763
O         25.00267         5.79348        -1.34579
H         25.80914         5.26013        -1.51591
O          3.25550         1.69375         1.56515
H          3.79470         2.27750         2.14218
O         32.92645        12.10104        -1.41988
H         32.84602        13.05647        -1.67476
O         28.24154         3.06914         2.39981
H         28.99868         2.46721         2.59249
O         16.10924         7.25018         1.15985
H         16.13356         8.03825         1.74301
O         23.48384        19.76167        -0.98672
H         23.70456        18.99004        -1.54750
O          4.44192         5.41758         2.27413
H          4.75556         6.23084         2.73679
O         32.85375        14.88041        -1.41558
H         33.53223        15.39894        -1.90090
O         29.45840        12.96655        -0.88877
H         29.43221        12.06578        -1.27742
O         30.88347         1.44460         2.07037
H         31.80285         1.64093         2.37205
O         25.59220        12.19499         2.85210
H         26.36473        11.77781         3.29040
O         19.65067         9.63170         1.36026
H         19.60350        10.48361         1.84450
O         12.47895        17.10611        -2.56880
H         13.29015        17.62073        -2.77207
O          8.49598         2.08034         2.51658
H          9.34773         2.41978         2.86766
O          6.73665         9.57645        -1.83099
H          7.23600        10.17897        -2.43393
O         37.33850         4.13009         1.84416
H         36.54425         4.43285         2.33582
O         41.10575         7.89702         1.18434
H         41.19462         8.85266         1.38942
O         20.69698         2.88781         1.94888
H         20.80102         3.67893         2.52399
O         22.65124         7.76757         2.15217
H         22.87103         6.92359         2.60458
O         15.94441         6.76862        -2.43539
H         15.61138         5.99799        -2.94815
O         19.88947        12.91374        -2.08212
H         19.09297        13.37842        -2.41623
O         30.95580         7.76946         2.76615
H         30.15293         7.33155         3.12274
O          9.69276        17.07228        -2.62623
H         10.61384        17.19107        -2.96466
H          0.58811         1.63384        -1.46806
H          0.37535         3.98564        -0.79745
H          2.63144         0.31972        -0.98039
H          0.27555         5.86223        -0.49760
H          0.23861         8.28759        -0.46436
H          0.19766        10.19247        -0.28652
H          0.19278        12.62079        -0.16811
H          0.19910        14.56595        -0.29715
H          0.25024        16.95992        -0.53958
H          1.53080        19.10933        -0.85812
H          4.98503         0.20345         0.02036
H          3.69787        20.27327        -0.99608
H          7.40265         0.24618         0.52844
H          6.13301        20.31851        -0.73966
H          9.82136         0.24472         0.55531
H          8.60704        20.31010        -0.47837
H         12.27438         0.23443         0.25042
H         11.05293        20.28494        -0.42684
H         14.69215         0.18985        -0.04922
H         13.49960        20.28307        -0.27015
H         17.29613         0.16071        -0.56007
H         15.97373        20.29940        -0.31525
H         19.75644         0.31826        -0.78990
H         18.43408        20.29982        -0.15797
H         22.21001         0.37100        -0.67996
H         20.88707        20.30128        -0.08933
H         24.65437         0.32330        -0.43269
H         23.40278        20.26038         1.00786
H         27.11738         0.34648        -0.41621
H         25.84320        20.29319         0.62174
H         29.51817         0.34095        -0.25611
H         28.23618        20.33465         0.66996
H         31.72258         0.77967        -1.06249
H         30.78198        20.33681         0.35111
H         34.61069         0.35274        -0.96205
H         33.21370        20.35751         0.24299
H         36.84548         0.37339        -0.88044
H         35.64153        20.37112        -0.16739
H         39.20325         0.37792        -1.46534
H         38.05951        20.37106        -0.87379
H         41.40709         1.49471        -1.44439
H         42.77817         3.64345        -1.11436
H         42.81237         6.07391        -0.88305
H         42.65219         8.00266        -1.40016
H         42.56062        10.41976        -1.59115
H         42.72793        12.29970        -1.07113
H         42.73109        14.72018        -1.13350
H         42.58609        16.56720        -1.78416
H         40.38630        20.27461        -1.78054
H         42.44244        18.97071        -2.22417
