         618
 CSIRO Nanostructure Databank - Neutral Graphene Oxide Data Set
C         23.80570        69.96203        -3.50090
C         23.71565        71.37428        -3.33813
C         22.50284        72.07101        -3.57908
C         23.60501        74.17050        -3.08425
C         22.44875        73.44526        -3.43800
C         26.15492        65.72440        -2.71637
C         26.19529        67.10110        -2.85597
C         25.04673        67.80313        -3.53353
C         26.12613        69.98685        -2.74680
C         24.97849        69.28349        -3.23602
C         26.08446        71.38962        -2.63448
C         24.88029        72.10132        -2.95205
C         26.04855        74.33101        -2.56487
C         24.81053        73.51940        -2.85154
C         28.29995        61.45280        -1.58766
C         28.27148        62.84222        -1.49009
C         27.19444        63.61046        -2.05960
C         28.11222        65.81521        -1.15702
C         27.17491        64.98382        -2.03132
C         28.54819        67.05473        -2.04294
C         27.32753        67.85568        -2.40626
C         28.44576        69.97133        -1.81101
C         27.31349        69.25291        -2.34364
C         28.39546        71.40083        -1.70673
C         27.23544        72.11555        -2.13526
C         28.28512        74.20609        -1.45146
C         27.20481        73.52111        -2.03022
C         30.74389        57.20468        -1.40620
C         30.61243        58.51490        -1.01790
C         29.45166        59.29473        -1.33491
C         30.55924        61.38076        -0.58191
C         29.41576        60.67906        -1.14259
C         30.48761        62.81065        -0.47486
C         29.38188        63.53302        -0.88620
C         30.76870        65.62858        -0.98596
C         29.37108        65.02446        -0.58526
C         30.74147        67.14000        -0.87076
C         29.66130        67.83682        -1.40432
C         30.70973        69.99325        -0.81608
C         29.58841        69.26980        -1.33874
C         30.68376        71.41408        -0.74393
C         29.49564        72.11965        -1.15116
C         30.48898        74.29062        -0.26006
C         29.41597        73.52585        -0.99942
C         33.13129        52.83349        -0.68780
C         33.09360        54.24586        -0.86011
C         31.93888        54.97620        -1.08752
C         33.12943        57.09149        -0.54328
C         32.05086        56.45168        -1.40220
C         32.97436        58.46748        -0.01618
C         31.69404        59.20054        -0.25941
C         32.91774        61.33495         0.21541
C         31.70890        60.67702        -0.18984
C         32.86930        62.77734         0.53650
C         31.59407        63.54687         0.16937
C         32.75361        65.70323         0.76262
C         31.71885        64.96959        -0.03408
C         32.91260        67.13960         0.33207
C         31.83451        67.83658        -0.25553
C         32.95234        70.00526         0.16555
C         31.84217        69.28094        -0.31669
C         33.00481        71.41401         0.02922
C         31.84749        72.13429        -0.34299
C         32.93513        74.29930         0.15429
C         31.82595        73.58338        -0.20266
C         35.53651        48.53591        -0.07476
C         35.50651        49.94369        -0.03902
C         34.35696        50.66737        -0.36309
C         35.56567        52.79022        -0.34534
C         34.34102        52.11177        -0.45685
C         35.61861        54.25737        -0.43627
C         34.36997        55.00734        -0.73140
C         35.34167        57.05389         0.59599
C         34.27756        56.42376        -0.29274
C         35.41418        58.54928         0.41242
C         34.21975        59.23672         0.22304
C         35.44311        61.40941         0.39467
C         34.13636        60.65912         0.33374
C         35.33744        62.84837         0.83453
C         34.12393        63.55387         0.68247
C         35.29284        65.67661         0.99939
C         34.08619        64.95371         0.80160
C         35.28942        67.12032         1.03415
C         34.09599        67.81422         0.72297
C         35.38606        70.01011         1.04516
C         34.06339        69.27711         0.79057
C         35.46612        71.44751         0.70329
C         34.29009        72.11394         0.15832
C         35.40419        74.32232         0.86046
C         34.27452        73.69791         0.20312
C         37.92943        44.23890         0.21072
C         37.90254        45.62475         0.24923
C         36.73996        46.38807        -0.00807
C         37.99402        48.50448         0.21807
C         36.74420        47.80268         0.06965
C         38.04496        49.89937         0.31914
C         36.74895        50.69985         0.40562
C         38.10232        52.79506        -0.01309
C         36.85094        51.99765        -0.40831
C         37.94960        54.16878         0.56859
C         36.68872        54.92802         0.36505
C         37.83651        57.04461         0.99178
C         36.69842        56.39163         0.55447
C         37.82163        58.49164         1.17012
C         36.62021        59.23977         0.82041
C         37.69859        61.29960         1.64814
C         36.57295        60.61322         1.00407
C         37.68206        62.82272         1.67401
C         36.50023        63.55172         1.17086
C         37.77651        65.66344         1.29645
C         36.51224        64.96437         1.19036
C         37.77959        67.05045         1.17775
C         36.55069        67.82187         1.13297
C         37.88870        69.97924         0.78660
C         36.60562        69.21950         1.06178
C         37.83920        71.41540         1.26000
C         36.62112        72.14985         0.98707
C         37.70234        74.22848         1.72430
C         36.59832        73.60810         1.13348
C         40.42992        40.63141        -1.66037
C         40.42177        41.67797        -0.71240
C         39.20021        42.22360        -0.25639
C         40.35703        44.12866         0.78805
C         39.16993        43.52185         0.32479
C         40.37662        45.56675         1.08105
C         39.13921        46.34304         0.66047
C         40.52535        48.44175         0.40695
C         39.26465        47.72514         0.02860
C         40.52562        49.82863         0.60024
C         39.28395        50.56373         0.44458
C         40.48011        52.77347         0.99515
C         39.32260        52.03747         0.37723
C         40.22734        54.15902         1.51118
C         39.14178        54.91292         1.03314
C         40.20298        56.96508         1.85313
C         39.07295        56.30623         1.28808
C         40.11993        58.40741         2.13523
C         38.96594        59.16528         1.60644
C         40.14910        61.27513         2.16433
C         38.98658        60.58566         1.79487
C         40.12086        62.75500         2.26839
C         38.95402        63.52189         1.78373
C         40.26701        65.57397         1.63192
C         39.01069        64.90202         1.53910
C         40.33713        67.00783         1.32396
C         39.06306        67.77379         1.08189
C         40.19458        69.87759         1.77343
C         39.08233        69.23421         1.30004
C         40.18406        71.31846         2.01448
C         38.94358        72.03961         1.78224
C         40.16029        74.16092         2.24950
C         38.83616        73.44914         2.32418
C         42.79645        37.49747        -4.67153
C         42.83924        38.68087        -3.73395
C         41.65187        39.13569        -3.20113
C         42.87194        40.75979        -1.81019
C         41.63163        40.18445        -2.23373
C         42.85489        41.77903        -0.80545
C         41.66284        42.25623        -0.27249
C         42.88814        44.09613         0.90376
C         41.60882        43.27411         0.87497
C         42.91934        45.45127         0.96659
C         41.70738        46.31178         1.26756
C         43.01404        48.41028         0.71188
C         41.78369        47.62884         0.35053
C         42.97811        49.78567         0.96252
C         41.75242        50.51585         0.92330
C         42.93309        52.57855         1.86396
C         41.74341        51.98400         1.19740
C         42.98140        53.72212         2.61956
C         41.12272        54.83842         2.35305
C         42.61590        56.81549         2.85581
C         41.30389        56.23030         2.35663
C         42.65428        58.36216         2.85659
C         41.36830        59.13362         2.60822
C         42.63831        61.26966         2.38961
C         41.41111        60.60057         2.37251
C         42.72123        62.70221         2.29486
C         41.45653        63.47558         2.31801
C         42.69953        65.59052         1.98361
C         41.47851        64.89930         1.92300
C         42.68608        67.01594         2.09241
C         41.49746        67.74601         1.83962
C         42.47462        69.78426         2.72896
C         41.40829        69.13687         2.07622
C         42.55562        71.28920         2.94641
C         41.31153        71.99085         2.44019
C         42.61879        74.09542         2.27478
C         41.33883        73.45167         2.37325
C         45.25941        36.09189        -7.21477
C         44.06413        36.40694        -6.52388
C         45.29139        37.88070        -5.01648
C         44.07222        37.27265        -5.44123
C         45.31585        38.83419        -3.95578
C         44.08692        39.26684        -3.33697
C         45.36827        40.84092        -1.89193
C         44.10010        40.29317        -2.35960
C         45.40600        41.75540        -0.85313
C         44.15089        42.17119        -0.20757
C         45.48944        43.90665         1.24950
C         44.15622        43.31130         0.77240
C         45.38036        45.42161         1.42018
C         44.25371        46.11400         0.65199
C         45.52120        48.36547         1.23184
C         44.28431        47.65319         0.73220
C         45.48914        49.80762         1.53860
C         44.25645        50.52771         1.17286
C         45.33523        52.56477         2.35004
C         44.21943        51.99365         1.49089
C         45.33621        54.07818         2.34146
C         44.08084        54.68243         2.59106
C         45.16553        56.86714         2.69472
C         43.94866        56.10180         2.68755
C         45.15489        58.32875         2.73776
C         43.93792        59.04242         2.66337
C         45.10667        61.25883         2.83516
C         43.94019        60.49744         2.23461
C         45.16673        62.71678         2.58824
C         43.93818        63.39724         2.31514
C         45.16691        65.61432         2.62958
C         44.01886        64.87113         1.96416
C         45.10254        67.02379         2.82336
C         43.81022        67.68540         2.65791
C         45.42100        70.07385         3.16843
C         43.54857        68.98183         3.12907
C         45.19408        71.31927         2.56356
C         43.80387        71.86308         2.19339
C         45.00460        74.02070         1.75844
C         43.81230        73.38107         2.14785
C         46.45810        36.62941        -6.80592
C         47.72357        38.09678        -5.28328
C         46.50738        37.53689        -5.70269
C         47.77456        39.02284        -4.21665
C         46.55264        39.41759        -3.55083
C         47.84414        40.95434        -2.11539
C         46.59856        40.38315        -2.51287
C         47.90786        41.93162        -1.09138
C         46.71503        42.15899        -0.20342
C         47.89745        44.20786         0.67224
C         46.72243        43.53681         0.44114
C         47.97760        45.33348         1.72536
C         46.64791        46.11145         1.76966
C         47.93377        48.33169         2.04856
C         46.65670        47.60349         1.82216
C         47.92557        49.79829         1.94310
C         46.64843        50.47809         1.90141
C         47.79759        52.64535         2.14569
C         46.65017        51.92493         2.05094
C         47.79483        54.13685         1.92581
C         46.51042        54.81579         2.33509
C         47.69522        56.94951         2.59191
C         46.44749        56.22072         2.55020
C         47.66037        58.36786         2.75044
C         46.41071        59.03690         2.78654
C         47.65226        61.26892         2.95043
C         46.39653        60.49870         3.02792
C         47.62345        62.69336         2.93260
C         46.36901        63.41192         2.76010
C         47.56136        65.57098         3.08936
C         46.37209        64.87218         2.77723
C         47.43407        66.93877         3.35409
C         46.31147        67.75494         3.11456
C         47.64684        69.85684         2.31012
C         46.52159        69.22264         2.93761
C         47.53517        71.20565         1.82498
C         46.30775        71.92340         1.93963
C         47.32867        73.92427         0.93261
C         46.21163        73.30729         1.50575
C         48.99888        39.59334        -3.82198
C         50.28340        41.13571        -2.41145
C         49.05705        40.55727        -2.79439
C         50.32942        42.16656        -1.45409
C         49.11189        42.60341        -0.80730
C         50.36373        44.39775         0.32695
C         49.14698        43.73378         0.08312
C         50.42298        45.64537         1.06228
C         49.19796        46.24055         1.55170
C         50.40196        48.38885         1.89961
C         49.20416        47.60207         1.87735
C         50.38039        49.79190         2.05137
C         49.11144        50.48487         2.07445
C         50.33448        52.70203         2.47514
C         49.06647        51.93141         2.35049
C         50.27493        54.18398         2.39368
C         49.04186        54.84972         2.38009
C         50.19305        56.99053         2.66527
C         48.96725        56.26506         2.53155
C         50.13069        58.40626         2.86399
C         48.90694        59.09831         2.88717
C         50.07884        61.29722         2.82182
C         48.87850        60.55701         2.94241
C         50.04751        62.70441         2.71116
C         48.85232        63.41540         2.88309
C         50.07937        65.59773         2.42431
C         48.93007        64.90395         3.19719
C         50.09355        66.99584         2.09155
C         49.17956        67.92520         2.62901
C         49.84148        69.69151         1.12633
C         48.87896        69.16161         2.03200
C         49.74398        71.05959         0.70011
C         48.61111        71.81545         1.08459
C         49.59089        73.78260        -0.03987
C         48.51880        73.19108         0.65762
C         51.55338        42.77451        -1.10726
C         52.81736        44.53813         0.00609
C         51.59120        43.88327        -0.24187
C         52.86018        45.77319         0.68439
C         51.63192        46.33961         1.17607
C         52.88992        48.49213         1.61824
C         51.70040        47.63393         1.95636
C         52.84887        49.88614         1.80969
C         51.59921        50.56665         2.07341
C         52.78695        52.74143         2.20560
C         51.59999        51.98074         2.22404
C         52.75935        54.18218         2.35940
C         51.49994        54.90167         2.44873
C         52.71088        57.04558         2.62244
C         51.46125        56.31413         2.58312
C         52.69492        58.43382         2.80652
C         51.40967        59.11692         3.06878
C         52.63169        61.34230         2.63674
C         51.38362        60.62922         2.99470
C         52.56872        62.68970         2.36610
C         51.24909        63.36542         2.09116
C         52.38129        65.53115         1.59733
C         51.24276        64.87395         2.12840
C         52.27225        66.81020         0.99083
C         51.04661        67.53810         1.17006
C         51.89926        69.42753        -0.22228
C         50.93030        68.87868         0.73167
C         51.91790        70.88010        -0.48253
C         50.80411        71.65520        -0.05153
C         51.83472        73.62109        -1.10800
C         50.74695        73.04414        -0.40244
C         54.07465        46.48536         0.80533
C         55.28593        48.60605         1.12113
C         54.10045        47.85200         1.20648
C         55.28607        49.99149         1.40587
C         54.04955        50.65348         1.70828
C         55.25162        52.76958         2.00327
C         54.04193        52.06029         1.97071
C         55.27317        54.17165         2.54829
C         53.96298        54.90578         2.38227
C         55.20113        57.03263         2.48089
C         53.96990        56.33087         2.48116
C         55.20240        58.48576         2.73667
C         53.90121        59.21212         2.75259
C         55.10074        61.29493         2.14095
C         53.87786        60.60236         2.64545
C         55.04681        62.74126         1.78130
C         53.80010        63.47150         2.13751
C         54.89539        65.53785         1.10426
C         53.70711        64.90415         1.71217
C         54.74441        66.93424         0.67249
C         53.38859        67.42795         0.39644
C         54.40257        69.36999        -0.89227
C         53.24274        68.64402        -0.37455
C         54.14180        70.64028        -1.59973
C         52.97448        71.45923        -1.19413
C         54.10785        73.49812        -2.08652
C         52.96441        72.86622        -1.48806
C         56.48139        50.74285         1.36592
C         57.68444        52.86687         1.61723
C         56.48068        52.11600         1.67647
C         57.68855        54.26948         1.77757
C         56.47798        54.97102         2.12396
C         57.69324        57.12443         2.04683
C         56.45647        56.36496         2.24409
C         57.71320        58.50389         2.12630
C         56.50570        59.23813         2.56913
C         57.53061        61.37506         1.53796
C         56.48752        60.76278         2.46786
C         57.46734        62.84575         1.32947
C         56.28774        63.52096         1.48650
C         57.28439        65.64255         0.55824
C         56.13235        64.92283         1.07519
C         57.19574        66.89924        -0.01776
C         55.92200        67.64260         0.04618
C         56.79139        69.43235        -1.47673
C         55.67974        68.82559        -0.82115
C         56.66661        70.69242        -2.08731
C         55.34822        71.35286        -2.17980
C         56.48296        73.45844        -2.81426
C         55.30287        72.82153        -2.36273
C         58.86875        54.99457         1.54020
C         60.08575        57.07917         1.34955
C         58.90885        56.40577         1.66253
C         60.21049        58.52429         1.49037
C         58.96016        59.27231         1.89476
C         60.14247        61.48718         1.29095
C         58.84173        60.68294         1.38993
C         59.95942        62.85093         0.67007
C         58.59230        63.46736         0.53334
C         59.82342        65.72866         0.21663
C         58.59942        64.97611         0.66379
C         59.60564        67.03458        -0.45148
C         58.34218        67.55013        -0.62342
C         59.21203        69.45293        -2.12320
C         58.04461        68.61700        -1.67282
C         59.04112        70.67259        -2.73786
C         57.77604        71.35576        -2.66997
C         58.86149        73.42423        -3.49880
C         57.69319        72.74929        -3.03935
C         61.33900        59.19458         0.71779
C         62.28710        61.36695         0.02046
C         61.26650        60.70669         0.62585
C         62.30176        62.80751        -0.15882
C         61.06275        63.53479         0.13437
C         62.23878        65.62144        -0.53069
C         61.01906        64.92686        -0.13612
C         62.13459        67.08191        -0.99735
C         60.78834        67.75118        -0.99069
C         61.67272        69.37341        -2.76976
C         60.57084        68.92712        -1.87893
C         61.44348        70.60466        -3.57609
C         60.06558        71.25215        -3.69712
C         61.20234        73.42156        -4.28773
C         60.08445        72.76676        -3.75394
C         63.39908        63.43816        -0.70767
C         64.49496        65.51032        -1.54086
C         63.42696        64.85541        -0.95793
C         64.43050        66.88975        -1.97784
C         63.19964        67.60566        -1.85912
C         64.13408        69.46837        -3.13587
C         63.04263        68.84530        -2.52454
C         63.99888        70.87939        -3.58232
C         62.64127        71.46303        -3.79683
C         63.50888        73.22583        -5.26250
C         62.45311        72.74908        -4.52905
C         65.49793        67.49073        -2.67342
C         66.45931        69.41034        -3.94165
C         65.39243        68.79764        -3.21453
C         66.34141        70.67169        -4.54708
C         65.17808        71.59944        -4.22634
C         65.88362        73.00554        -6.16418
C         64.70454        72.32739        -5.51169
C         67.32108        71.18589        -5.40204
C         67.11019        72.41076        -6.11211
O         41.82649        54.10423         3.29271
O         45.31655        48.14349        -0.20772
O         48.57736        67.60305         3.84809
O         63.36654        71.70124        -2.52576
O         27.37910        66.22504        -0.06745
O         42.56474        57.56873         4.08822
O         36.91433        54.17458         1.61673
O         35.37593        54.79831        -1.79589
O         62.57635        66.75802         0.35074
O         55.54246        67.91677         1.44897
O         44.99766        52.19577         3.67331
O         54.40966        70.61827        -3.04352
O         56.06331        58.82501         3.91197
O         57.88567        60.69283         0.26994
O         54.00140        64.51677         3.13563
O         61.41796        69.28895        -4.23062
O         47.04004        47.98116         3.17924
O         34.60852        72.93774        -1.00094
O         49.64802        52.22436         3.69562
O         45.63497        45.74397         2.80276
O         44.44990        69.55940         4.03800
O         34.43101        69.77135         2.13135
O         39.90620        67.34801        -0.06328
O         60.03259        59.04533         2.86967
O         59.46770        65.58656         1.65003
O         45.51112        60.86921         4.16604
O         31.97264        58.56831         1.05849
O         41.54366        52.81058        -0.03888
O         54.86737        61.69976         0.74501
O         44.47351        51.59272         0.13595
O         39.13696        52.63573        -1.01345
O         37.32577        62.03362         2.87375
O         44.06973        41.93525         1.27468
O         31.88758        63.10746         1.56054
O         51.45918        59.93761         4.28808
O         40.33706        58.74358         3.55399
O         39.40651        46.13143         2.06925
O         52.14982        68.59352        -1.36812
O         40.67235        63.26145         3.53879
O         60.92024        69.12344        -0.45120
O         38.04136        70.03044        -0.67587
H         38.47757        69.19765        -0.95998
O         47.84681        54.27376         0.44811
H         47.76862        55.22880         0.23757
O         46.87101        41.23036         0.92626
H         46.13796        41.43003         1.55766
O         59.55103        70.87069        -5.01039
H         59.87481        69.95513        -5.18060
O         41.83122        46.72878         2.62929
H         40.92482        46.73314         3.01869
O         34.87746        56.83919         1.97094
H         34.03424        57.32972         2.08553
O         48.17374        44.66383         2.98809
H         47.37036        44.10392         3.13625
O         58.21421        63.22605        -0.87257
H         57.99435        62.26488        -0.93874
O         49.33036        64.97104         4.59618
H         49.30455        65.91908         4.85888
O         65.68364        72.57421        -3.29859
H         64.96615        72.74292        -2.64286
O         36.97751        51.61897        -1.79859
H         37.88157        51.90113        -2.08740
O         61.37622        58.64144        -0.61021
H         60.61817        58.99517        -1.11929
O         30.63505        75.61360        -0.78449
H         30.97284        75.54515        -1.70073
O         23.80421        67.15918        -3.23182
H         23.69216        67.15797        -2.25887
O         29.03178        66.48097        -3.30954
H         29.20904        67.22429        -3.92404
O         38.50940        73.31293         3.76585
H         39.26524        72.84788         4.18621
O         55.43212        54.00213         4.01512
H         55.44068        54.89942         4.41320
O         60.55331        61.71872         2.67166
H         60.59964        60.83591         3.11503
O         51.04827        63.11276         0.63618
H         51.02099        62.14142         0.49856
O         56.83612        61.28928         3.76810
H         56.51944        60.64008         4.43997
O         57.74236        67.77044        -2.86393
H         57.36784        68.35966        -3.55498
O         44.51919        45.76659        -0.73458
H         43.86934        46.27468        -1.27639
O         32.26947        65.76587         2.14608
H         31.96385        64.85786         2.38718
O         35.85130        61.54096        -1.03549
H         35.83333        60.64076        -1.42722
O         64.25505        71.26498        -6.41133
H         63.96067        71.68015        -7.24877
O         44.41550        64.87232         0.52927
H         43.68950        64.45253         0.02016
O         25.75124        75.43069        -1.69342
H         25.42610        75.06792        -0.84430
O         36.57159        51.08097         1.78997
H         36.44012        50.26875         2.32163
O         44.21536        60.50048         0.78540
H         43.46619        60.06449         0.32781
O         41.98624        47.09879        -1.00238
H         41.10097        47.11535        -1.45706
O         29.33838        65.15525         0.85136
H         28.45521        65.59962         1.03770
O         51.88952        47.24409         3.37044
H         51.08476        46.75381         3.64691
O         43.61780        71.40989         0.82157
H         44.27820        71.86544         0.25759
O         45.73828        43.32052         2.55932
H         45.15000        43.77099         3.20607
O         31.13580        65.20281        -2.31584
H         30.44282        65.55190        -2.93760
O         32.52971        56.53633        -2.79428
H         33.31621        55.95251        -2.87174
O         42.66252        71.59353         4.35015
H         43.35800        71.00456         4.72577
O         41.67238        37.59032        -5.55716
H         41.80942        38.36073        -6.14533
O         39.35788        47.40577        -1.43317
H         39.16410        48.23635        -1.92006
O         41.51562        42.50698         2.10683
H         42.34074        41.96704         2.15826
H         23.55972        75.26474        -2.99124
H         26.38611        74.79433        -3.53735
H         28.23196        75.29891        -1.34208
H         30.12808        74.41672         0.80177
H         32.82879        75.37010         0.38645
H         35.28981        75.34240         1.25710
H         37.68504        75.31759         1.88572
H         40.18247        75.25811         2.16870
H         42.64192        75.19083         2.16261
H         44.99307        75.10836         1.58882
H         47.27149        74.98161         0.63523
H         49.51332        74.83814        -0.34039
H         51.80383        74.69500        -1.34635
H         54.06237        74.58438        -2.25803
H         56.46346        74.54320        -2.99906
H         58.80473        74.51278        -3.65639
H         61.12118        74.48867        -4.54802
H         63.43640        74.19287        -5.78494
H         65.72817        73.92155        -6.75483
H         22.92529        69.40013        -3.84569
H         21.60825        71.50430        -3.87431
H         21.50673        73.98219        -3.61692
H         25.28771        65.17923        -3.12233
H         25.18887        67.69509        -4.64920
H         27.44715        60.92859        -2.04420
H         26.42252        63.06928        -2.63012
H         29.90919        56.72943        -1.94542
H         28.60403        58.80008        -1.83291
H         32.18956        52.27066        -0.77023
H         30.96626        54.46976        -1.17672
H         34.60965        47.98552        -0.30004
H         33.42985        50.11945        -0.59411
H         37.02492        43.68225        -0.07660
H         35.79614        45.86542        -0.22319
H         39.47646        40.18499        -1.97916
H         38.25467        41.76409        -0.58153
H         42.61577        36.57951        -4.04162
H         40.70478        38.67549        -3.51823
H         45.22336        35.40119        -8.06863
H         43.11347        35.95646        -6.84228
H         47.39293        36.37462        -7.32545
H         48.65512        37.82108        -5.79951
H         49.92417        39.29825        -4.33848
H         51.21492        40.79892        -2.88967
H         52.48590        42.41560        -1.56735
H         53.74408        44.11791        -0.41246
H         55.00610        46.01686         0.45421
H         56.22528        48.11370         0.82995
H         57.42795        50.24424         1.11152
H         58.62263        52.35573         1.35694
H         59.78423        54.45779         1.25248
H         60.92670        56.52163         0.91265
H         62.30871        58.90336         1.20110
H         63.13778        60.79262        -0.37934
H         64.28642        62.84278        -0.97200
H         65.40356        64.93884        -1.78507
H         66.44204        66.93806        -2.79163
H         67.37752        68.82601        -4.11201
H         68.25594        70.62794        -5.56261
H         67.95583        72.84806        -6.66384
