         732
 CSIRO Nanostructure Databank - Neutral Graphene Oxide Data Set
C         23.10787        24.56291         1.51570
C         21.86044        25.19796         1.49033
C         22.91960        27.34936         1.17537
C         21.75051        26.56377         1.24066
C         22.93298        28.77529         0.87701
C         21.77464        29.53206         0.80737
C         22.98886        31.66412         0.65962
C         21.80243        30.94252         0.70998
C         23.03687        33.10449         0.76370
C         21.90059        33.84470         1.10012
C         22.99457        35.97847         0.65680
C         21.89641        35.24983         1.09924
C         22.98798        37.42061         0.62465
C         21.79200        38.13695         0.69117
C         22.95715        40.28526         0.64153
C         21.78126        39.53987         0.65987
C         22.91886        41.73057         0.55552
C         21.78363        42.38113         0.11799
C         22.90685        44.54161        -0.06794
C         21.77896        43.77414        -0.16946
C         22.83475        45.99389        -0.47207
C         21.75187        46.71373         0.32598
C         23.71669        47.85522         0.87317
C         22.26308        47.69015         1.09343
C         25.38061        23.36366         0.32207
C         25.56312        24.60094         0.98136
C         24.30761        25.29168         1.39181
C         25.29656        27.57619         1.61998
C         24.17092        26.71118         1.38085
C         25.46085        28.82566         1.10550
C         24.22529        29.43837         0.58065
C         25.54580        31.68217         0.58490
C         24.25256        30.95872         0.44679
C         25.49478        33.10845         0.38333
C         24.27795        33.78105         0.45889
C         25.49787        36.03205         0.11095
C         24.20310        35.24337         0.23275
C         25.43608        37.46680         0.43427
C         24.24329        38.14634         0.57301
C         25.41728        40.32674         0.81712
C         24.24213        39.61204         0.69091
C         25.44555        41.79624         1.17709
C         24.12565        42.51534         0.89919
C         25.43348        44.69671         0.34725
C         24.13370        43.98673         0.53573
C         25.39137        46.04724         0.05529
C         24.10921        46.76094        -0.13744
C         25.39951        48.89315        -0.77479
C         24.09997        48.21446        -0.56119
C         25.39414        50.21896        -1.24206
C         27.63266        23.37850        -0.53398
C         26.37878        22.76244        -0.43639
C         27.91582        24.54957         0.17587
C         26.87434        25.17856         0.91359
C         28.07881        27.37626         0.86903
C         27.16143        26.50743         1.42238
C         28.03688        28.82485         1.02030
C         26.75033        29.59687         1.36285
C         28.01101        31.71391         0.68707
C         26.74610        31.00771         0.78121
C         28.03329        33.11890         0.41559
C         26.76782        33.81636        -0.03943
C         27.96362        35.98981         0.34753
C         26.78030        35.30601         0.24031
C         27.98276        37.47114         0.31505
C         26.69754        38.22673         0.39544
C         27.96783        40.36405         0.75834
C         26.70791        39.58250         1.06458
C         27.89358        41.79119         0.65472
C         26.68661        42.51366         0.63874
C         27.89292        44.61970         0.10969
C         26.68688        43.94767         0.41242
C         27.95127        46.09240         0.02312
C         26.61890        46.86313         0.03273
C         27.84552        48.89459        -0.77732
C         26.61485        48.23361        -0.52363
C         27.82605        50.26138        -1.17873
C         26.58647        50.90194        -1.40443
C         31.14674        20.34970        -0.70239
C         30.05455        21.00981        -1.25901
C         30.45992        23.01065         0.12494
C         29.69169        22.30531        -0.84746
C         30.49136        24.47539         0.27307
C         29.24182        25.23241         0.00869
C         30.53449        27.38245         0.50543
C         29.25819        26.73140         0.22937
C         30.49972        28.80612         0.89775
C         29.21318        29.55048         0.90630
C         30.47902        31.71595         0.72134
C         29.23375        31.00042         0.82147
C         30.48775        33.14140         0.59019
C         29.23696        33.83916         0.44818
C         30.42150        36.02873         0.45650
C         29.24206        35.29788         0.40254
C         30.43076        37.47694         0.55767
C         29.23392        38.20028         0.60029
C         30.45494        40.32354         0.59775
C         29.18843        39.64254         0.66846
C         30.47606        41.80787         0.62328
C         29.16002        42.55598         0.61443
C         30.33795        44.56306        -0.29140
C         29.15504        43.93411         0.09028
C         30.28872        45.90778        -0.97711
C         29.12033        46.76140        -0.54979
C         30.29258        48.85089        -1.13123
C         29.10055        48.15472        -0.78724
C         30.30071        50.25386        -1.34591
C         29.07047        50.97824        -1.36225
C         30.31479        53.05416        -1.63404
C         29.10900        52.37402        -1.55724
C         33.05187        18.86658         0.89967
C         33.01312        20.28214         0.96228
C         31.85475        20.92840         0.38194
C         33.07168        23.26813         1.41314
C         31.38891        22.20075         0.81019
C         32.96228        24.55842         0.84829
C         31.68270        25.18592         0.53543
C         32.98191        27.35733         0.47428
C         31.71405        26.64795         0.48562
C         32.94221        28.83806         0.16722
C         31.78274        29.56137         0.82845
C         32.93573        31.74413         0.64574
C         31.73202        31.04013         0.71763
C         32.94784        33.16803         0.57108
C         31.71960        33.84973         0.52665
C         32.92919        36.02918         0.92555
C         31.74641        35.33595         0.22743
C         32.93052        37.51815         0.63956
C         31.69375        38.18678         0.57990
C         32.93169        40.40151         0.64321
C         31.64848        39.62081         0.54143
C         32.85194        41.70399        -0.12114
C         31.63753        42.50506         0.06732
C         32.83742        44.55493        -0.59279
C         31.60228        43.85397        -0.28558
C         32.80736        45.98838        -0.77012
C         31.57917        46.67039        -0.87874
C         32.80138        48.88177        -1.19818
C         31.55190        48.07474        -1.41450
C         32.78797        50.23002        -1.40161
C         31.54115        50.96186        -1.50028
C         32.81234        53.12209        -1.43783
C         31.55279        52.37423        -1.55970
C         32.81835        54.53333        -1.30982
C         35.47657        18.76042         1.42806
C         34.16125        18.12376         1.20537
C         35.49518        20.27644         1.67792
C         34.12031        21.01246         1.76149
C         35.42963        23.15288         1.04593
C         34.22945        22.48048         1.36194
C         35.40997        24.55953         0.86707
C         34.19881        25.25758         0.72394
C         35.47020        27.39902         0.46992
C         34.19026        26.69141         0.51938
C         35.44245        28.85880         0.37814
C         34.24792        29.53829         0.41109
C         35.48555        31.75468         0.50815
C         34.21192        30.99366         0.67697
C         35.44213        33.22549         0.34772
C         34.21578        33.90862         0.47525
C         35.43027        36.03259         0.44584
C         34.22342        35.32687         0.55819
C         35.46565        37.50287         0.81072
C         34.16728        38.23288         0.52832
C         35.41116        40.35508         0.17733
C         34.18147        39.60901         0.34929
C         35.39227        41.71927        -0.06134
C         34.13800        42.42583        -0.39363
C         35.29675        44.61023        -0.68648
C         34.09132        43.89544        -0.54327
C         35.27934        46.02186        -0.88671
C         34.04469        46.70216        -0.87595
C         35.32582        48.87721        -1.15031
C         34.04966        48.19495        -0.71976
C         35.31992        50.26120        -1.28252
C         34.06453        50.97560        -1.70183
C         35.26503        53.14506        -1.20771
C         34.04118        52.44192        -1.36999
C         35.24878        54.56567        -1.11391
C         34.00176        55.23219        -1.16531
C         37.58309        16.33658        -0.65061
C         36.46490        16.98699        -0.12634
C         37.94493        18.41613         1.07945
C         36.62462        18.02824         0.80989
C         38.00859        20.49822         1.44792
C         36.72553        21.08259         1.37291
C         37.91357        23.15734         0.73293
C         36.69219        22.44822         1.02918
C         37.92449        24.56743         0.62580
C         36.69549        25.30573         1.10187
C         37.97364        27.47605         0.80814
C         36.65743        26.74381         0.66799
C         37.90611        28.89395         0.32493
C         36.71029        29.56192         0.28859
C         37.94487        31.72494         0.45369
C         36.68562        31.03384        -0.06413
C         37.92931        33.19769         0.11707
C         36.66819        33.92497         0.18462
C         37.88379        36.09437        -0.03528
C         36.63428        35.34451         0.18090
C         37.95477        37.55327         0.25145
C         36.70336        38.25900         0.37584
C         37.90697        40.37404         0.01754
C         36.68834        39.65303         0.24042
C         37.91277        41.74491        -0.26434
C         36.64696        42.48118        -0.09932
C         37.82497        44.53407        -1.01356
C         36.60083        43.94534        -0.44604
C         37.72838        45.94617        -1.43058
C         36.51947        46.72683        -1.12827
C         37.78633        48.87107        -1.37799
C         36.54949        48.13827        -1.22455
C         37.76025        50.28761        -1.32055
C         36.54223        50.99562        -1.27002
C         37.72544        53.14304        -0.93085
C         36.52930        52.43940        -1.16615
C         37.71041        54.57899        -0.78777
C         36.49180        55.29203        -0.96038
C         37.72644        57.38062        -0.78208
C         36.53617        56.70622        -0.96522
C         40.07614        14.80979        -1.31943
C         40.07890        16.13139        -0.92033
C         38.89118        16.82824        -0.44930
C         40.28771        18.81183         0.29601
C         39.05566        18.02062         0.31231
C         40.32676        20.23735         0.51983
C         39.16401        21.03780         0.83076
C         40.33567        23.12044         0.19991
C         39.13562        22.43398         0.55146
C         40.33049        24.54187         0.05435
C         39.12206        25.27295         0.30907
C         40.33362        27.38110        -0.11163
C         39.15806        26.70012         0.26518
C         40.35237        28.83091        -0.18878
C         39.16357        29.57518         0.04707
C         40.36836        31.66500        -0.30979
C         39.18119        30.97974         0.00748
C         40.37587        33.11811        -0.26997
C         39.14208        33.83889        -0.04969
C         40.43518        35.98951         0.23968
C         39.15944        35.31850        -0.14210
C         40.48841        37.51259         0.40606
C         39.16260        38.21552         0.21502
C         40.38085        40.33003        -0.45222
C         39.22405        39.71888         0.32872
C         40.31294        41.66681        -0.83557
C         39.09367        42.42757        -0.69014
C         40.23907        44.53415        -1.56295
C         39.00687        43.81041        -1.11530
C         40.30925        45.99423        -1.32364
C         39.05887        46.72563        -1.54291
C         40.27108        48.83308        -1.23743
C         39.03964        48.17922        -1.38144
C         40.32525        50.29798        -1.34989
C         39.01008        51.05909        -1.41411
C         40.19103        53.10484        -0.64621
C         39.00392        52.46511        -0.96407
C         40.11889        54.49208        -0.05372
C         38.91706        55.27795        -0.51875
C         40.17223        57.41222        -0.23806
C         38.93521        56.68580        -0.51591
C         40.20655        58.81752        -0.20333
C         42.50993        14.59589        -1.12122
C         41.28504        14.05092        -1.38941
C         42.67367        16.04352        -1.00680
C         41.35433        16.85584        -0.85295
C         42.71142        18.81452        -0.14560
C         41.43824        18.17439        -0.21157
C         42.73946        20.22703         0.01639
C         41.53265        20.94853         0.20199
C         42.76770        23.07644        -0.20059
C         41.54494        22.38141         0.08556
C         42.75804        24.49671        -0.40473
C         41.53909        25.23359        -0.26221
C         42.75360        27.35390        -0.73037
C         41.53893        26.65655        -0.39222
C         42.76431        28.77934        -0.82642
C         41.54350        29.52078        -0.55361
C         42.69638        31.66581        -1.23996
C         41.53082        30.93202        -0.63680
C         42.78448        33.10816        -0.80448
C         41.58832        33.79468        -0.46220
C         42.88365        35.97013        -0.43634
C         41.67421        35.22096        -0.08399
C         42.82627        37.39853        -0.56726
C         41.63161        38.14960        -0.35764
C         42.77530        40.16898        -1.10845
C         41.58267        39.53178        -0.65441
C         42.75917        41.57420        -1.53442
C         41.40815        42.23791        -1.72394
C         42.79349        44.51420        -1.37735
C         41.52852        43.78291        -1.71390
C         42.77916        45.92482        -1.19643
C         41.51402        46.66165        -1.20596
C         42.70063        48.83258        -0.96559
C         41.50169        48.11544        -1.11725
C         42.71897        50.25546        -0.78493
C         41.53350        51.00830        -0.92200
C         42.66526        53.13847        -0.45955
C         41.47325        52.42554        -0.68364
C         42.66167        54.55404        -0.13743
C         41.40973        55.26105        -0.10135
C         42.58042        57.40103         0.30819
C         41.38366        56.68280        -0.00511
C         42.56484        58.79271         0.35000
C         41.38796        59.50121         0.06825
C         45.12652        15.95549        -0.48073
C         43.92272        16.67528        -0.50272
C         45.18513        18.73582         0.25928
C         43.92129        18.06081        -0.21316
C         45.19375        20.21230        -0.04864
C         44.00189        20.92124        -0.09115
C         45.21767        23.05860        -0.46971
C         43.99028        22.35897        -0.23834
C         45.17288        24.44235        -0.80776
C         43.96888        25.17988        -0.74455
C         45.16262        27.32111        -1.25395
C         43.96540        26.61825        -0.93558
C         45.15665        28.72539        -1.37743
C         43.97020        29.46917        -1.14541
C         45.18112        31.63398        -1.35489
C         44.00856        30.92586        -1.17094
C         45.21524        33.08644        -1.24952
C         44.00239        33.79733        -0.90751
C         45.25247        35.94371        -1.02443
C         44.02976        35.24168        -0.78597
C         45.25532        37.36347        -1.03148
C         44.02876        38.08036        -0.91368
C         45.25248        40.22002        -1.09586
C         44.00661        39.49140        -1.09546
C         45.25402        41.63031        -0.99038
C         44.04695        42.36288        -1.39213
C         45.23097        44.52039        -0.96049
C         44.01651        43.83143        -1.22218
C         45.24649        45.93472        -1.00732
C         44.01305        46.62222        -1.07742
C         45.24182        48.84234        -0.69030
C         43.98203        48.11232        -1.06135
C         45.16001        50.27248        -0.31785
C         43.95643        50.94315        -0.49528
C         45.25075        53.13852        -0.25084
C         43.94676        52.41580        -0.54280
C         45.23409        54.65060        -0.03727
C         43.84794        55.22914         0.16494
C         45.07667        57.30795         0.85112
C         43.75225        56.59302         0.81545
C         46.36649        16.63489        -0.37052
C         47.71690        18.71889        -0.31025
C         46.43549        17.98834        -0.13463
C         47.70648        20.21668        -0.32408
C         46.47661        20.96408         0.15226
C         47.69836        23.05137        -0.57488
C         46.45823        22.37694        -0.37081
C         47.69380        24.39722        -0.96333
C         46.42467        25.07662        -1.23049
C         47.72630        27.28899        -1.32880
C         46.43216        26.58369        -1.48990
C         47.72263        28.72808        -1.65318
C         46.39536        29.42720        -1.81805
C         47.70925        31.63152        -1.91545
C         46.33471        30.93667        -2.05483
C         47.70188        33.12124        -1.67972
C         46.41714        33.79778        -1.38228
C         47.69856        35.92752        -1.19031
C         46.45973        35.21866        -1.20714
C         47.69953        37.34078        -1.15843
C         46.49065        38.06843        -1.13959
C         47.66911        40.22554        -0.78989
C         46.48045        39.50781        -1.04660
C         47.61142        41.58188        -0.43661
C         46.41720        42.32791        -0.60229
C         47.60007        44.45985        -0.23331
C         46.44444        43.78514        -0.58233
C         47.86621        45.88056        -0.69646
C         46.57887        46.71240        -1.06392
C         47.62745        48.76890         0.15621
C         46.38298        47.97404        -0.16231
C         47.54949        50.13703         0.38687
C         46.36961        50.94430         0.09239
C         47.57515        53.05704         0.69887
C         46.39644        52.33985         0.23089
C         47.52968        54.44372         0.99026
C         46.17730        55.11455         1.10000
C         46.21110        56.62458         1.03305
C         50.14157        18.79695         0.15520
C         49.00778        18.07356        -0.01654
C         50.17707        20.24620         0.06266
C         48.98206        20.94513        -0.14727
C         50.18576        23.04775        -0.36466
C         48.96536        22.35444        -0.34255
C         50.24819        24.43334        -0.85832
C         48.94142        25.13581        -1.20187
C         50.18336        27.33301        -1.05763
C         48.92764        26.61837        -1.19921
C         50.18183        28.78431        -1.19497
C         48.97746        29.49218        -1.47111
C         50.15820        31.63692        -1.35533
C         48.95387        30.89624        -1.56147
C         50.16524        33.06755        -1.23243
C         48.95143        33.80797        -1.28277
C         50.18000        35.90388        -0.89104
C         48.94681        35.20125        -1.13564
C         50.20576        37.31197        -0.80159
C         48.98614        38.06056        -1.14089
C         50.16933        40.19122        -0.30596
C         48.97538        39.55410        -0.90439
C         50.08823        41.50646         0.12170
C         48.80303        42.21890         0.13060
C         50.08953        44.42236         0.42085
C         48.77860        43.73386         0.27940
C         50.08670        45.84343         0.48335
C         48.87443        46.60827         0.19247
C         49.95890        48.62873         1.11885
C         48.80690        47.96726         0.45656
C         49.96291        50.12422         1.22787
C         48.71591        50.87661         0.92722
C         49.98670        53.02564         1.22322
C         48.78938        52.35242         0.86261
C         49.92221        54.41710         1.43688
C         48.70967        55.09684         1.36494
C         52.62608        20.35953         0.55871
C         51.39910        20.98729         0.21882
C         52.61952        23.15259         0.06681
C         51.39843        22.39673        -0.00749
C         52.61351        24.57934        -0.14510
C         51.43234        25.24701        -0.54091
C         52.57763        27.45815        -0.27543
C         51.37182        26.65830        -0.71512
C         52.64891        28.82914        -0.89277
C         51.40845        29.50583        -1.14659
C         52.62293        31.65193        -1.19555
C         51.39734        30.93397        -1.26187
C         52.62872        33.03595        -0.97121
C         51.38855        33.75411        -0.96881
C         52.61136        35.86448        -0.50040
C         51.39416        35.16507        -0.78149
C         52.58808        37.25478        -0.28077
C         51.39182        38.00983        -0.44063
C         52.58253        40.12250         0.19907
C         51.37666        39.42783        -0.17770
C         52.55886        41.50392         0.50975
C         51.24272        42.17571         0.81850
C         52.49323        44.35292         0.92853
C         51.26879        43.68590         0.64261
C         52.47316        45.75748         1.09490
C         51.28974        46.47944         0.87008
C         52.54505        48.62836         1.35212
C         51.25941        47.89967         1.25032
C         52.56472        50.08788         1.16536
C         51.25530        50.85679         1.07031
C         52.48144        52.92453         1.50857
C         51.25956        52.30856         1.31245
C         53.79455        21.08510         0.63539
C         55.08553        23.20664         0.37152
C         53.82757        22.48069         0.37432
C         55.09935        24.60133         0.08738
C         53.86410        25.30885        -0.10038
C         55.11411        27.39502        -0.45925
C         53.87695        26.69437        -0.32018
C         55.10323        28.77139        -0.85029
C         53.87974        29.47651        -1.03938
C         55.13283        31.67297        -1.09793
C         53.89510        30.91972        -1.53378
C         55.11719        33.01515        -0.74528
C         53.86150        33.74970        -0.71775
C         55.10184        35.83749        -0.24447
C         53.85235        35.11693        -0.45008
C         55.08310        37.21194        -0.09356
C         53.81007        37.91665         0.28858
C         55.01636        40.12498         0.37382
C         53.82798        39.42417         0.19224
C         55.01219        41.52704         0.62903
C         53.76462        42.21176         0.71985
C         54.96393        44.28931         1.24954
C         53.75086        43.62357         1.01704
C         54.96883        45.70299         1.67417
C         53.66439        46.46066         1.62446
C         54.97908        48.63430         1.72527
C         53.71381        47.94096         1.54977
C         54.99042        50.05361         1.78803
C         53.77760        50.82348         1.54716
C         53.70157        52.20316         1.63792
C         57.51725        23.22908         0.52360
C         56.30963        22.55226         0.61242
C         57.56894        24.59483         0.18966
C         56.34284        25.30171        -0.00295
C         57.61326        27.38720        -0.44144
C         56.35496        26.69760        -0.31417
C         57.64457        28.75560        -0.78522
C         56.38527        29.41299        -1.14499
C         57.64964        31.65543        -0.91304
C         56.40292        30.97576        -1.25091
C         57.59210        32.99880        -0.54893
C         56.35704        33.71619        -0.48836
C         57.56194        35.81927         0.11238
C         56.35947        35.11558        -0.24722
C         57.56333        37.19319         0.27736
C         56.34833        37.95962        -0.05094
C         57.53400        40.10245         0.72208
C         56.31841        39.43718         0.21340
C         57.48606        41.50414         0.93924
C         56.24193        42.22218         0.87630
C         57.45671        44.32523         1.37514
C         56.21983        43.60864         1.17250
C         57.44646        45.77145         1.58766
C         56.23868        46.46361         1.67919
C         57.42965        48.59715         2.02229
C         56.20518        47.89674         1.82918
C         57.39762        50.00757         2.15596
C         56.21913        50.71360         2.03769
C         60.06295        24.58950         0.12600
C         58.84052        25.27927         0.02379
C         60.09512        27.34584        -0.46283
C         58.85218        26.67187        -0.28024
C         60.10866        28.77838        -0.70032
C         58.87722        29.48402        -0.85012
C         60.12870        31.61679        -0.87725
C         58.89462        30.91996        -0.93232
C         60.15010        33.09626        -0.75911
C         58.84824        33.78061        -0.46037
C         60.10662        35.80268         0.35273
C         58.81727        35.01338         0.41675
C         60.07920        37.15099         0.90713
C         58.71013        37.90222         0.85623
C         59.92513        40.06562         1.26166
C         58.72201        39.37984         0.91534
C         59.90064        41.46862         1.44047
C         58.68722        42.20041         1.24993
C         59.99539        44.34297         1.28339
C         58.66662        43.62735         1.36273
C         59.94056        45.79282         1.70035
C         58.69618        46.47599         1.76960
C         59.91127        48.53880         2.28322
C         58.68406        47.87386         2.04436
C         61.27437        25.25007        -0.07335
C         61.29496        26.61009        -0.36289
C         61.31872        29.50125        -0.73548
C         61.32814        30.88679        -0.81518
C         61.37515        33.83075        -0.39264
C         61.30875        35.15120         0.01070
C         61.27059        38.01026         0.98752
C         61.18100        39.33746         1.24701
C         61.05534        42.19764         1.94400
C         61.08145        43.54566         1.96541
C         61.12919        46.49044         1.89678
C         61.11386        47.85793         2.21049
O         59.20251        37.26845         2.09253
O         31.34784        29.04528         2.11088
O         44.86231        52.86170        -1.63874
O         29.93902        42.39881         1.85590
O         47.64515        19.49904        -1.58985
O         28.55221        22.82175        -1.43716
O         36.74108        43.51798         0.96809
O         49.10785        50.51834         2.33683
O         31.91704        22.72218         1.99386
O         24.27936        30.07135        -0.73251
O         35.67319        19.32118         2.77374
O         27.42509        46.74163         1.24317
O         38.53246        35.83267        -1.35523
O         49.19255        39.00838        -2.25361
O         50.35526        48.06649         2.41904
O         51.97300        50.46686        -0.14684
O         42.10140        16.79971        -2.11238
O         43.58642        41.87101        -2.71057
O         56.50655        38.93341        -1.17414
O         23.88468        43.53824         1.92793
O         38.32795        46.25056        -2.72457
O         27.35253        38.08526        -0.89922
O         40.81978        44.28104        -2.89333
O         41.15454        35.34545         1.33532
O         49.79626        24.56492        -2.25304
O         39.77887        50.80508        -2.63214
O         48.50045        42.86657         1.43839
O         24.72026        35.65406        -1.09187
O         47.87537        32.55960        -3.03521
O         33.39091        41.70650        -1.47033
O         46.37630        25.64766        -2.60429
O         35.08016        31.32883         1.83802
O         44.86223        48.70134        -2.10676
O         47.06314        28.84390        -2.98919
O         56.46599        30.11138        -2.43699
O         29.18772        26.16799        -1.13143
O         59.42041        33.89230        -1.79640
O         54.16106        45.92444         2.89444
O         26.31214        27.01290         2.41663
O         38.17724        19.30063         2.14353
O         34.01699        48.40225         0.75503
H         34.73653        47.86114         1.14573
O         36.83115        25.32449         2.57062
H         37.51093        26.01622         2.78006
O         33.70728        20.97648         3.14453
H         34.14121        20.18752         3.54745
O         26.81842        29.80503         2.81304
H         26.86906        28.91088         3.22193
O         26.77404        33.72415        -1.50838
H         26.02839        34.29195        -1.82150
O         45.92419        31.08294        -3.44131
H         46.51512        30.50192        -3.97327
O         40.83456        37.76447         1.81358
H         41.26498        36.93308         2.14103
O         53.92389        30.86540        -2.99659
H         54.80744        30.49583        -3.24339
O         26.74066        39.29090         2.49886
H         26.51922        40.13695         2.95966
O         23.09160        48.68344        -1.41736
H         22.63716        47.90813        -1.82425
O         32.67161        28.97002        -1.26945
H         33.39859        28.53086        -1.75938
O         51.01134        41.96478         2.25796
H         50.10759        42.32065         2.44136
O         30.05105        45.59873        -2.43894
H         30.69060        44.89677        -2.69120
O         52.33138        27.71308         1.17524
H         53.13221        28.15652         1.52860
O         32.76107        35.88174         2.35920
H         33.57847        36.22633         2.78326
O         45.92158        47.44301         1.11891
H         46.30068        47.98247         1.84480
O         31.48619        47.87986        -2.88749
H         30.82366        47.15652        -3.04446
O         38.24353        27.58745         2.26721
H         37.67217        28.30776         2.61385
O         32.02286        35.46912        -1.19995
H         31.27558        35.07202        -1.69509
O         58.67894        34.53398         1.79200
H         58.73919        35.33628         2.36492
O         53.72012        37.68664         1.75840
H         53.56122        36.72779         1.89576
O         46.63947        21.07618         1.61787
H         46.16637        20.30580         2.01958
O         39.46991        40.06212         1.74396
H         40.09508        39.38151         2.09699
O         45.75665        55.25430        -1.25146
H         45.40399        54.71839        -2.00008
O         43.41713        56.30803         2.24189
H         42.55328        55.83973         2.24390
O         37.90313        31.62667         1.90594
H         38.67036        32.11831         2.26621
O         39.88184        54.26431         1.40748
H         39.55416        55.11086         1.78084
O         34.12672        50.94110        -3.17958
H         34.95408        51.39276        -3.45177
O         33.06337        40.81119         2.04695
H         32.88080        40.03061         2.61131
O         36.61280        31.17194        -1.50024
H         37.44693        30.83053        -1.88630
O         45.17074        18.66490         1.77965
H         45.14405        17.71239         2.01881
O         25.63504        41.81497         2.63244
H         25.20476        42.64673         2.95011
O         46.79533        47.10583        -2.42731
H         46.01340        47.62875        -2.74134
O         60.34657        44.36691        -0.14650
H         60.35864        43.43732        -0.45950
O         42.39601        31.70636        -2.68824
H         43.22929        31.93461        -3.15666
O         35.52649        37.47816         2.29585
H         35.77834        38.37906         2.59494
O         48.64664        45.63039        -1.90402
H         48.19961        46.11220        -2.64317
O         45.62964        54.67804         2.36477
H         44.85419        55.26025         2.57591
O         22.57377        46.08261        -1.89938
H         21.78847        45.53160        -2.10033
O         40.97818        41.83869        -3.04696
H         41.69926        42.08288        -3.66865
H         23.12713        23.47123         1.63481
H         20.95038        24.59099         1.59536
H         20.75931        27.01813         1.11046
H         20.79727        29.04685         0.93848
H         20.84225        31.47310         0.76493
H         20.97944        33.32549         1.39525
H         20.99033        35.76786         1.44115
H         20.83015        37.60823         0.72125
H         20.80795        40.04795         0.67575
H         20.87408        41.81250        -0.11506
H         20.85363        44.21900        -0.56690
H         20.69229        46.43123         0.28140
H         24.39322        48.12467         1.69851
H         21.68800        48.32852         1.77631
H         24.39273        22.88618         0.32318
H         24.43317        50.70583        -1.45275
H         26.17262        21.84362        -0.99968
H         26.55845        51.94415        -1.74759
H         31.44740        19.37264        -1.10407
H         29.47185        20.53318        -2.05782
H         30.28800        54.14656        -1.73894
H         28.17836        52.95468        -1.60200
H         32.13135        18.33301         0.61705
H         31.87785        55.09886        -1.33231
H         34.10431        17.02650         1.19432
H         33.95734        56.32579        -1.07884
H         37.43151        15.45634        -1.28971
H         35.46111        16.63590        -0.40189
H         37.71541        58.47747        -0.81572
H         35.62112        57.28920        -1.13253
H         39.12453        14.27004        -1.42460
H         39.29577        59.40139        -0.38840
H         43.37934        13.93823        -0.98191
H         41.20014        12.96493        -1.53866
H         43.46764        59.35781         0.61623
H         41.39295        60.59933         0.09165
H         45.13601        14.88410        -0.71996
H         45.10481        58.40450         0.78620
H         47.28491        16.06733        -0.57985
H         47.16543        57.16768         1.08531
H         51.07253        18.26012         0.38380
H         49.03437        16.98338         0.12728
H         50.82399        54.97426         1.72339
H         48.69686        56.16317         1.62557
H         52.65865        19.28163         0.76393
H         52.53246        54.01510         1.63248
H         54.71784        20.55297         0.89757
H         54.60036        52.78879         1.87489
H         58.44127        22.66621         0.70744
H         56.33312        21.48351         0.85958
H         58.32538        50.56847         2.32563
H         56.24862        51.80827         2.11494
H         60.08241        23.51522         0.34909
H         59.92652        49.61026         2.52017
H         62.21811        24.69215        -0.00155
H         62.26471        27.09999        -0.51725
H         62.28085        28.97924        -0.65808
H         62.29280        31.41090        -0.80448
H         62.36050        33.37600        -0.56159
H         62.25587        35.69742         0.13699
H         62.26182        37.55238         0.85922
H         62.11189        39.91416         1.34071
H         61.89080        41.63079         2.37928
H         61.95210        44.06425         2.39155
H         62.09568        45.97818         1.79764
H         62.05964        48.39034         2.38087
