         244
 CSIRO Nanostructure Databank - Neutral Graphene Oxide Data Set
C          1.22905         1.94871         0.20567
C          1.14109         3.32105         0.20350
C          2.45649         1.27096         0.01054
C          2.30127         4.13837        -0.16599
C          1.13950         6.40374        -0.29118
C          1.16813         7.74219        -0.26428
C          2.30082         5.60602         0.16583
C          2.30782         8.51844         0.36177
C          1.13520        10.73152         0.05710
C          1.12553        12.08328         0.17329
C          2.37583         9.93131        -0.24359
C          2.33858        12.85671         0.22005
C          1.19638        15.05513         0.15201
C          1.22530        16.44531         0.06725
C          2.38173        14.26562         0.14176
C          2.41813        17.14806        -0.15300
C          2.47371        18.56428        -0.10810
C          3.67034         1.96772        -0.11752
C          3.63837         3.43652        -0.28058
C          4.91480         1.31813        -0.12420
C          4.89540         4.20008        -0.09052
C          3.61852         6.32412         0.30296
C          3.64377         7.80092         0.24490
C          4.88461         5.59493         0.07684
C          4.83579         8.47887         0.31949
C          3.63381        10.65241         0.17155
C          3.57330        12.08984         0.40484
C          4.85643         9.95475         0.34603
C          4.90545        12.84787         0.34645
C          3.66128        14.94227        -0.05042
C          3.65158        16.37487        -0.54036
C          4.85227        14.27124        -0.02543
C          4.93814        17.11172        -0.25313
C          3.67244        19.24626        -0.15173
C          4.93025        18.54838        -0.17856
C          6.13786         2.04057        -0.21546
C          6.11977         3.48573        -0.15965
C          7.36670         1.36388        -0.30391
C          7.35016         4.20300        -0.18389
C          6.10476         6.34093         0.07903
C          6.11087         7.76225         0.27794
C          7.33942         5.64746        -0.04738
C          7.33076         8.45223         0.40984
C          6.08177        10.62969         0.47086
C          6.17769        12.07491         0.04660
C          7.29846         9.86632         0.96691
C          7.31671        12.90792         0.69246
C          6.13409        14.92405        -0.50378
C          6.13433        16.41477        -0.24687
C          7.39659        14.25562         0.00008
C          7.38302        17.10516        -0.19155
C          6.14318        19.23680        -0.11500
C          7.38295        18.54186        -0.13491
C          8.59290         2.07213        -0.41431
C          8.55341         3.49893        -0.37587
C          9.83803         1.40091        -0.53594
C          9.79206         4.28542        -0.68073
C          8.55151         6.36645         0.07666
C          8.56734         7.75975         0.29984
C          9.80989         5.59126         0.07831
C          9.84972         8.46196         0.39531
C          8.62775        10.63772         0.83541
C          8.64028        12.14718         0.71921
C          9.87504         9.92702         0.46607
C          9.87312        12.82638         0.25800
C          8.59102        14.93773        -0.05197
C          8.60653        16.38561        -0.21634
C          9.86050        14.22757         0.05321
C          9.83821        17.08335        -0.20969
C          8.61025        19.22775        -0.10410
C          9.83619        18.52736        -0.14031
C         11.07792         2.10928        -0.58604
C         11.06703         3.51548        -0.52544
C         12.33241         1.41382        -0.58657
C         12.29862         4.29284        -0.71083
C         11.11012         6.31406         0.24339
C         11.04311         7.77489         0.39369
C         12.35280         5.69929        -0.26937
C         12.31138         8.54022         0.70761
C         11.04368        10.63716         0.23806
C         11.07119        12.08443         0.15227
C         12.31422         9.85640        -0.08613
C         12.30083        12.78112        -0.12188
C         11.08024        14.91751        -0.18520
C         11.07789        16.37500        -0.25495
C         12.29432        14.19282        -0.26912
C         12.28977        17.09768        -0.23996
C         11.06007        19.22279        -0.05330
C         12.28927        18.53224        -0.07274
C         13.56861         2.07852        -0.65650
C         13.59119         3.53748        -0.94534
C         14.78080         1.40663        -0.43569
C         14.91536         4.30796        -0.95358
C         13.58298         6.34084        -0.08180
C         13.59810         7.71765         0.49949
C         14.81727         5.69040        -0.33354
C         14.86719         8.49788         0.32058
C         13.59434        10.65683         0.09076
C         13.54205        12.04143        -0.11443
C         14.84130         9.96988         0.18847
C         14.81610        12.74947        -0.35009
C         13.51000        14.97253        -0.76000
C         13.54582        16.40468        -0.27298
C         14.83555        14.22709        -0.61553
C         14.73202        17.08182        -0.08903
C         13.51281        19.22262         0.05802
C         14.75165        18.53278         0.02691
C         16.04305         2.08029        -0.35230
C         16.08813         3.52780        -0.40938
C         17.22822         1.36734        -0.18884
C         17.25696         4.22040        -0.05732
C         16.06565         6.37319        -0.14815
C         16.08382         7.77358        -0.03602
C         17.28567         5.62238        -0.01176
C         17.33800         8.51639        -0.08088
C         16.09062        10.64376         0.12741
C         16.09613        12.14740         0.21000
C         17.32109         9.97707         0.09456
C         17.34971        12.76047        -0.45502
C         16.09674        14.93401        -0.28201
C         15.96158        16.31095         0.33001
C         17.30616        14.25848        -0.20264
C         17.25369        17.12500         0.23695
C         15.96728        19.22465        -0.03437
C         17.19463        18.47744        -0.45032
C         18.53438         2.09981        -0.29648
C         18.46167         3.44309         0.43685
C         19.76757         1.32724         0.10251
C         19.77142         4.19327         0.29367
C         18.48223         6.29566         0.62449
C         18.59860         7.75398         0.23131
C         19.79703         5.58741         0.37006
C         19.79196         8.50755         0.77865
C         18.58563        10.67021         0.18063
C         18.60682        12.09017         0.05154
C         19.80189         9.97113         0.38876
C         19.80272        12.80740         0.12711
C         18.54608        14.93400         0.05970
C         18.55443        16.39945         0.17166
C         19.77991        14.25616         0.05214
C         19.78191        17.13064        -0.16870
C         18.48159        19.23281        -0.31609
C         19.71591        18.56174        -0.29773
C         20.92796         1.99465         0.27669
C         20.97615         3.45262         0.23555
C         22.19646         4.15572         0.20006
C         21.03036         6.30621         0.35053
C         21.06794         7.75513         0.45885
C         22.22186         5.54376         0.23779
C         22.24091         8.50347         0.39537
C         21.04207        10.66298         0.39398
C         21.05315        12.11295         0.28549
C         22.24086         9.90742         0.44727
C         22.23090        12.87120         0.30234
C         21.01972        14.98496         0.02253
C         21.00994        16.44024        -0.18127
C         22.21200        14.26643         0.15310
C         22.19558        17.18761        -0.36784
C         20.94815        19.27275        -0.43857
C         22.15045        18.58480        -0.48744
O          4.33425        12.51805         1.61288
O          2.81335         5.88093         1.50756
O          2.88102         3.85916        -1.48263
O         14.45348         7.89095         1.67206
O         14.94906        13.25670        -1.73399
O         10.48293         5.53478         1.37074
O         18.00592        17.02713         1.46681
O          8.84816        11.49593         2.02539
O         12.80037         3.96142        -2.09192
O         18.28772         8.03271        -1.13746
O          9.72632         4.67078        -2.10200
H          9.88563         3.86543        -2.63882
O          6.46548        12.06682        -1.37416
H          5.77003        11.55396        -1.83609
O         15.70686        16.03807         1.74369
H         16.57638        16.15124         2.20370
O         12.20992         8.89650         2.10198
H         13.02521         8.56756         2.55096
O          6.93770        13.20994         2.04942
H          7.49356        12.65405         2.64396
O         19.64927         8.48223         2.25251
H         20.43977         8.92658         2.62790
O         18.26004         3.20420         1.85090
H         18.19630         4.08994         2.28025
O         18.23249         6.19701         2.06501
H         18.78963         6.88859         2.50395
O          6.12913        14.78855        -1.96530
H          5.31908        15.25958        -2.28253
O         17.39705        12.47587        -1.86816
H         16.56835        12.82807        -2.27571
O         13.27618        15.13533        -2.19657
H         13.61680        14.31752        -2.62784
O         16.16867        12.50725         1.61466
H         15.45432        12.03507         2.09154
O          2.43670         9.73521        -1.69973
H          2.26536        10.60077        -2.12677
O         17.03965        18.13236        -1.88862
H         16.89654        18.96803        -2.38118
O          2.02565         8.65245         1.77480
H          2.14396         7.75746         2.17073
O          3.61297        16.25205        -2.02303
H          3.52403        17.16193        -2.38100
O          7.06687         9.66285         2.39394
H          7.53120        10.38956         2.87006
O         18.69661         2.44388        -1.71149
H         18.66817         1.61418        -2.23156
O         15.26206         4.52752        -2.36227
H         14.40904         4.62045        -2.84865
O         12.27040         9.48931        -1.49421
H         12.30055        10.31282        -2.02526
H          0.33379         1.35319         0.43615
H          0.21550         3.82212         0.52092
H          2.47657         0.17322         0.06870
H          0.28990         5.86577        -0.73821
H          0.30842         8.30528        -0.65577
H          0.17748        10.19296         0.09536
H          0.15975        12.59910         0.27779
H          0.22828        14.56478         0.32186
H          0.29363        17.01151         0.21813
H          1.53375        19.12276         0.01856
H          4.94897         0.21976        -0.06725
H          3.68300        20.34414        -0.09589
H          7.37651         0.26408        -0.31597
H          6.14432        20.33573        -0.06399
H          9.85239         0.30164        -0.55005
H          8.61852        20.32638        -0.05005
H         12.32707         0.32148        -0.45620
H         11.05363        20.31767         0.05340
H         14.76052         0.31757        -0.27952
H         13.50778        20.31996         0.13891
H         17.20722         0.26619        -0.16995
H         15.98579        20.32117         0.05861
H         19.73631         0.22713         0.13617
H         18.46949        20.32591        -0.45042
H         21.86626         1.45238         0.47075
H         23.14182         3.59619         0.14681
H         23.19528         6.05215         0.21242
H         23.20972         7.99899         0.27098
H         23.21040        10.42187         0.41924
H         23.20623        12.37738         0.41079
H         23.17507        14.79509         0.14364
H         23.17153        16.68522        -0.40032
H         20.92952        20.36814        -0.52982
H         23.09013        19.14082        -0.61522
