         651
 CSIRO Nanostructure Databank - Neutral Graphene Oxide Data Set
C          5.82018        31.89913         0.60382
C          5.79092        33.26315         0.61161
C          8.16239        27.51469         0.16913
C          8.24544        29.02744         0.23280
C          7.06017        29.74203         0.43984
C          8.25053        31.84364         0.13681
C          7.04465        31.15004         0.39586
C          8.19173        33.30418        -0.03298
C          6.97844        34.04416         0.35943
C          8.25234        36.16410         0.43606
C          7.01429        35.42070         0.44702
C          8.26876        37.56599         0.59060
C         10.69301        23.22008         0.13377
C         10.70448        24.64812         0.21944
C          9.49160        25.39435         0.21853
C         10.71287        27.50076         0.09933
C          9.49230        26.78961         0.17954
C         10.70559        28.95672        -0.16869
C          9.45630        29.72368         0.03268
C         10.74466        31.88054        -0.00033
C          9.47694        31.14502         0.00696
C         10.75452        33.29600         0.10398
C          9.51789        34.07348        -0.03898
C         10.71358        36.17638         0.59944
C          9.49513        35.48415         0.35540
C         10.70396        37.57386         0.92372
C          9.45574        38.30362         0.81990
C         10.26635        40.61328         1.38491
C          9.34512        39.74136         0.76590
C         10.65632        41.90951         1.06093
C         13.24881        18.81437        -0.30046
C         13.19391        20.31412        -0.49992
C         11.90902        21.05199        -0.15111
C         13.15368        23.15568         0.27702
C         11.87549        22.43167         0.04295
C         13.17997        24.64603         0.42878
C         11.92427        25.39228         0.27204
C         13.21949        27.52604         0.28842
C         11.94565        26.80168         0.18442
C         13.25498        28.97703         0.24141
C         12.01964        29.71261        -0.13104
C         13.19855        31.88672         0.18623
C         11.97941        31.18036         0.04745
C         13.17972        33.29280         0.31608
C         11.96036        34.02078         0.28597
C         13.18667        36.18708         0.44723
C         11.95003        35.45920         0.46241
C         13.20493        37.60267         0.76017
C         11.98141        38.21632         1.15718
C         13.23446        40.29392         1.66544
C         12.08137        39.49887         1.74301
C         13.18830        41.76099         1.85633
C         11.85794        42.56970         1.59005
C         13.19298        44.69630         1.30401
C         11.99670        44.01263         1.31224
C         13.24113        46.10967         1.13005
C         15.76978        14.58013        -0.53130
C         15.67221        16.00791        -0.51384
C         14.48148        16.67990        -0.29425
C         15.74590        18.77114         0.22231
C         14.42911        18.12611        -0.20403
C         15.72250        20.29301         0.21726
C         14.41996        21.00295         0.06782
C         15.70160        23.22306         0.03608
C         14.42769        22.48334        -0.12600
C         15.65929        24.67730         0.29531
C         14.46845        25.37042         0.31198
C         15.66538        27.51279         0.71762
C         14.41385        26.81036         0.40218
C         15.68124        29.01653         0.77263
C         14.42838        29.70281         0.40824
C         15.67359        31.80963         0.14703
C         14.46747        31.14943         0.22680
C         15.72175        33.28515         0.22514
C         14.43785        34.04425         0.42104
C         15.64059        36.24332         0.10196
C         14.39247        35.50385         0.26778
C         15.69108        37.71450         0.42629
C         14.42977        38.32004         0.90929
C         15.73785        40.28043         1.84861
C         14.45266        39.65630         1.34008
C         15.77632        41.79771         1.71509
C         14.47317        42.46742         1.47876
C         15.75742        44.67733         1.39835
C         14.48136        43.95227         1.26498
C         15.72634        46.10763         1.21278
C         14.44708        46.80377         1.02544
C         15.64929        48.86298         0.40004
C         14.45778        48.17823         0.67578
C         15.63643        50.06016        -0.33774
C         18.26990        10.31823        -0.46385
C         18.20178        11.74642        -0.40911
C         17.01730        12.44894        -0.55857
C         18.24326        14.59994        -0.75693
C         16.98222        13.88973        -0.60193
C         18.21359        16.05405        -1.02304
C         16.89454        16.79035        -0.83550
C         18.16319        18.89450        -0.46077
C         16.96586        18.20238        -0.45813
C         18.18054        20.34023        -0.21353
C         16.99654        21.03429         0.00470
C         18.16122        23.18953         0.21676
C         16.99069        22.48805         0.12846
C         18.18074        24.60893         0.74459
C         16.96061        25.37270         0.28577
C         18.22928        27.53593         0.97572
C         16.97260        26.84166         0.46890
C         18.17428        28.98505         0.51825
C         16.99815        29.66649         0.52352
C         18.24320        31.80123         0.03919
C         16.98058        31.16942         0.56238
C         18.23024        33.20937        -0.50012
C         16.93927        34.00870        -0.27103
C         18.18253        36.18301         0.29272
C         16.92179        35.49402        -0.10464
C         18.21320        37.63122         0.57927
C         17.00450        38.35516         0.74494
C         18.23971        40.32261         1.64115
C         16.98367        39.65021         1.27818
C         18.24206        41.80004         1.94890
C         16.95005        42.51741         1.72501
C         18.21943        44.68572         1.56043
C         16.97848        43.97563         1.56553
C         18.18043        46.20728         1.66477
C         16.90224        46.81732         1.16618
C         18.11954        48.53479        -0.04285
C         16.96318        48.29543         0.92176
C         17.86618        49.44387        -1.02833
C         16.82405        50.45942        -1.01379
C         18.26247        52.33471        -2.01466
C         17.01480        51.70174        -1.63561
C         18.24290        53.73247        -2.19900
C         20.77420         6.07545        -0.37739
C         20.75717         7.48524        -0.28460
C         19.54880         8.18245        -0.40986
C         20.72047        10.34804        -0.11832
C         19.45908         9.59348        -0.33605
C         20.66680        11.76274        -0.58813
C         19.46407        12.53104        -0.09343
C         20.71924        14.60999        -0.81858
C         19.45306        13.93940        -0.64822
C         20.75756        16.10353        -1.06720
C         19.45086        16.83181        -0.85313
C         20.72536        18.97066        -0.75784
C         19.41938        18.19620        -0.69301
C         20.65637        20.38786        -0.24336
C         19.45118        21.04293        -0.18129
C         20.62410        23.16765         0.58273
C         19.45821        22.55638        -0.18077
C         20.66561        24.67047         0.37740
C         19.46950        25.37865         0.49586
C         20.70533        27.50585         0.42169
C         19.49269        26.79949         0.56666
C         20.72072        29.01285         0.65507
C         19.44976        29.61941         0.00755
C         20.71561        31.86140         0.28467
C         19.41756        31.12365         0.04721
C         20.68658        33.30961        -0.16031
C         19.50874        33.97857        -0.23816
C         20.69762        36.24843        -0.02368
C         19.46257        35.42865         0.10211
C         20.72067        37.57769         0.56954
C         19.48888        38.14747         1.24479
C         20.75752        40.45089         1.13006
C         19.49627        39.66819         1.17301
C         20.79826        41.88010         1.51755
C         19.56066        42.57741         2.07898
C         20.70334        44.71719         1.56324
C         19.49018        44.03049         1.62292
C         20.70617        46.22696         1.69376
C         19.44620        46.84071         1.10379
C         20.69655        48.35215        -0.48317
C         19.40888        47.85148         0.16978
C         20.79739        49.68167        -1.15265
C         19.73032        50.28211        -1.77922
C         20.73196        52.48702        -1.89134
C         19.56572        51.70513        -1.95916
C         20.69578        53.88104        -2.05803
C         19.42386        54.52690        -2.22743
C         20.54210        56.74071        -2.16210
C         19.37204        55.93941        -2.27646
C         20.48163        58.15119        -2.21108
C         23.24192         3.25722        -0.47517
C         22.02316         3.95496        -0.37324
C         23.20871         6.09744        -0.91736
C         21.97273         5.35134        -0.47615
C         23.28518         7.51952        -0.42167
C         22.05457         8.14277         0.19196
C         23.33232        10.49256        -0.05455
C         22.03156         9.67657         0.12044
C         23.20310        11.62743        -1.12963
C         21.91981        12.45928        -0.99495
C         23.19439        14.62556        -0.58295
C         21.93377        13.93153        -0.82013
C         23.16655        15.97365        -0.26116
C         21.89670        16.72379        -0.28949
C         23.15651        18.93173         0.01468
C         21.88063        18.21123        -0.11499
C         23.18487        20.34193         0.02685
C         21.91747        21.09931        -0.01118
C         23.14946        23.23173         0.37989
C         21.90795        22.44614         0.26867
C         23.10972        24.66277         0.06721
C         21.89608        25.37259         0.16627
C         23.18253        27.52311         0.08885
C         21.90339        26.81491         0.14981
C         23.20626        28.98607         0.10210
C         21.98449        29.69004         0.13522
C         23.20058        31.79313        -0.06456
C         21.98093        31.09305        -0.00639
C         23.17743        33.27087         0.11473
C         21.99413        33.99586        -0.49001
C         23.27490        36.21659        -0.01673
C         21.99548        35.51582        -0.28263
C         23.27231        37.64361         0.23508
C         22.01270        38.23829         0.75013
C         23.29685        40.47668         0.97167
C         22.05308        39.70293         1.14578
C         23.26488        41.86409         1.18725
C         21.99494        42.53905         1.49497
C         23.24697        44.72698         1.45757
C         22.00195        43.99483         1.91091
C         23.21972        46.07317         1.25584
C         22.01283        46.98775         1.32005
C         23.29336        48.62802        -0.06462
C         22.00354        47.84576         0.06064
C         23.33940        49.85051        -0.76691
C         22.11949        50.33512        -1.49738
C         23.24737        52.54743        -1.99479
C         22.02058        51.86590        -1.38847
C         23.14178        54.04030        -1.79445
C         21.91661        54.66049        -1.96122
C         22.99765        56.88588        -2.01874
C         21.82859        56.11052        -2.02440
C         22.93038        58.29467        -2.04787
C         21.65037        58.93843        -2.12912
C         22.77140        61.10903        -2.07759
C         21.60331        60.36362        -2.15190
C         24.45178         3.92305        -0.63285
C         25.69477         6.04171        -0.79853
C         24.50194         5.33882        -0.73357
C         25.72542         7.47465        -0.79879
C         24.47882         8.19958        -0.52433
C         25.72207        10.28691        -0.72379
C         24.54384         9.64354        -0.42913
C         25.75867        11.75238        -0.90630
C         24.47465        12.49875        -1.07375
C         25.65964        14.52924        -0.27872
C         24.45763        13.90929        -0.61164
C         25.67733        15.92767         0.19038
C         24.37018        16.68225         0.18810
C         25.72136        18.86178         0.22632
C         24.41487        18.16674         0.01502
C         25.69402        20.32988         0.60758
C         24.40646        21.01311         0.19530
C         25.66114        23.13104        -0.20000
C         24.43964        22.46823         0.33043
C         25.62784        24.61205        -0.48351
C         24.30602        25.39648        -0.49242
C         25.68131        27.48330         0.27294
C         24.36303        26.82787        -0.03020
C         25.71031        28.97422         0.03103
C         24.44559        29.68558        -0.03459
C         25.69216        31.86057        -0.18283
C         24.42670        31.10239        -0.10638
C         25.72839        33.30981         0.04761
C         24.46897        34.03639         0.18787
C         25.71262        36.17761        -0.27174
C         24.45001        35.49217        -0.03598
C         25.69931        37.71798        -0.16540
C         24.45428        38.37692         0.26973
C         25.72820        40.49188         0.67646
C         24.51048        39.78539         0.66258
C         25.74546        41.87791         1.03566
C         24.50685        42.57634         1.22405
C         25.74318        44.67592         1.46872
C         24.51484        43.99549         1.41252
C         25.75668        46.14821         1.58027
C         24.46170        46.86343         1.27203
C         25.78352        48.66253         0.03437
C         24.45944        48.15511         0.56342
C         25.80108        50.09145        -0.43077
C         24.54304        50.64603        -0.89662
C         25.73651        52.72160        -1.60965
C         24.50492        51.94448        -1.41275
C         25.68090        54.17591        -1.60154
C         24.34655        54.86179        -1.41784
C         25.53162        57.04205        -1.77423
C         24.33657        56.19525        -2.16005
C         25.39839        58.44056        -1.78388
C         24.13617        59.08253        -1.95271
C         24.02556        60.48747        -1.96994
C         26.93472         8.15754        -0.88506
C         28.18246        10.30503        -0.75342
C         26.98852         9.58403        -0.82068
C         28.21145        11.73008        -0.53892
C         26.98899        12.45977        -0.53958
C         28.16122        14.55477        -0.09680
C         26.94474        13.85110        -0.33307
C         28.14797        15.97578         0.17448
C         26.96332        16.65826         0.23648
C         28.22768        18.84069         0.31695
C         26.95451        18.09594         0.70461
C         28.14426        20.26990         0.03251
C         26.96853        21.00498         0.11630
C         28.09047        23.14637        -0.47648
C         26.95417        22.42518        -0.12384
C         28.11100        24.59836        -0.45299
C         26.91961        25.30922        -0.37071
C         28.19172        27.50590        -0.19431
C         26.89350        26.79072        -0.32186
C         28.21152        28.95300         0.15885
C         26.92983        29.63021         0.08057
C         28.17816        31.82560         0.52536
C         26.98901        31.09844        -0.06783
C         28.16787        33.27353         0.10766
C         26.96686        33.99673        -0.01685
C         28.16210        36.18635        -0.15804
C         26.98645        35.46215        -0.11756
C         28.16783        37.64210        -0.11671
C         27.00118        38.36417         0.03373
C         28.25432        40.39238         0.76525
C         26.99642        39.87388         0.10436
C         28.26606        41.82615         1.22356
C         26.98729        42.59108         1.20285
C         28.25794        44.72623         1.63176
C         26.98242        43.97082         1.43333
C         28.31351        46.16784         1.39645
C         27.04808        46.90105         1.40929
C         28.29970        48.91214         0.45874
C         27.01537        48.28464         0.82825
C         28.26771        50.20653        -0.09048
C         27.01271        50.76136        -0.54789
C         28.24186        52.95649        -0.96827
C         27.07870        52.07611        -1.21044
C         28.11860        54.32885        -1.24992
C         26.85551        54.95081        -1.50942
C         26.74416        56.38892        -1.53343
C         29.41171        12.45041        -0.36859
C         30.63157        14.58467        -0.07376
C         29.40253        13.84758        -0.16023
C         30.67070        15.95631         0.15404
C         29.42276        16.68399         0.59469
C         30.72930        18.93133         0.31131
C         29.41621        18.16161         0.25359
C         30.65616        20.23660        -0.48318
C         29.33634        20.90669        -0.56194
C         30.56642        23.18391        -1.05165
C         29.29373        22.41197        -0.87346
C         30.59450        24.60782        -0.63021
C         29.40737        25.27713        -0.41742
C         30.65965        27.47881        -0.20434
C         29.41967        26.68447         0.13915
C         30.72783        28.87673         0.41739
C         29.42057        29.63928         0.25055
C         30.69630        31.75800         0.18716
C         29.48546        31.08274         0.28535
C         30.73188        33.23747         0.27518
C         29.42787        33.99839         0.21358
C         30.75016        36.09680        -0.34866
C         29.43165        35.41397        -0.25855
C         30.75398        37.59059        -0.24126
C         29.47335        38.36478        -0.14375
C         30.72433        40.41799         0.52611
C         29.53315        39.75276         0.38665
C         30.75719        41.84893         0.79794
C         29.55314        42.52725         1.11587
C         30.73246        44.73995         0.91396
C         29.58089        43.95013         1.40562
C         30.76881        46.18904         1.09841
C         29.52517        46.87706         1.18406
C         30.74947        48.96690         0.56108
C         29.51188        48.27326         0.79671
C         30.70292        50.32612         0.15598
C         29.48887        50.96495        -0.17830
C         29.43605        52.34692        -0.53718
C         31.89348        16.66174         0.18328
C         33.27199        18.62552         0.44292
C         32.00017        18.06606         0.21434
C         33.56432        19.97187         0.02487
C         31.73597        20.91761        -0.95726
C         33.14691        23.06135        -0.72427
C         31.83897        22.39385        -1.11554
C         33.08701        24.53787        -0.54373
C         31.90377        25.24891        -0.52796
C         33.16049        27.44450         0.06873
C         31.92197        26.74169        -0.45775
C         33.17684        28.94309        -0.16236
C         31.96427        29.64842        -0.01287
C         33.19599        31.77295        -0.11919
C         31.95584        31.05714        -0.00594
C         33.21969        33.21051        -0.08135
C         32.00073        33.95697        -0.01374
C         33.24905        36.07263        -0.11486
C         32.01151        35.35060        -0.09604
C         33.26428        37.49594         0.07255
C         31.99654        38.19422         0.32276
C         33.31025        40.36950         0.47242
C         32.01677        39.67901         0.55141
C         33.27432        41.86260         0.30025
C         31.99802        42.52107         0.76427
C         33.28907        44.72659         0.81400
C         32.02188        43.97871         0.64730
C         33.23939        46.11994         0.86308
C         32.00491        46.87031         0.87631
C         31.98130        48.26909         0.70150
C         34.28344        20.99740         0.56843
C         35.41163        23.23359         0.52162
C         34.35263        22.35155        -0.03676
C         35.54260        24.53574         0.17804
C         34.40276        25.24959        -0.45314
C         35.67581        27.48115        -0.07836
C         34.42488        26.74273        -0.36730
C         35.65499        28.86286        -0.23980
C         34.41214        29.62538        -0.25480
C         35.67008        31.79963        -0.30373
C         34.42885        31.06150        -0.24041
C         35.69247        33.19164        -0.22361
C         34.45555        33.91001        -0.14403
C         35.69952        36.07118        -0.09787
C         34.46301        35.33945        -0.12982
C         35.62993        37.48111        -0.15394
C         34.46324        38.22510         0.15230
C         35.74139        40.38786         0.81025
C         34.50541        39.67220         0.41371
C         35.64950        41.78941         1.07417
C         34.50444        42.56179         0.83749
C         34.48143        43.96220         0.98033
C         36.72969        25.30961         0.73928
C         38.04524        27.41642         0.49745
C         36.85987        26.75598         0.29584
C         38.21988        28.79514         0.03364
C         36.93194        29.56026        -0.39407
C         38.24564        31.76737        -0.05992
C         36.94828        31.05133        -0.44593
C         38.15270        33.19439         0.26404
C         37.01272        33.97012        -0.34103
C         38.02193        36.03237         0.82649
C         36.93899        35.40967         0.12635
C         37.99809        37.39853         1.33239
C         37.29482        38.43161         0.74261
C         36.93527        39.74185         1.19256
C         39.33004        29.60314         0.55675
C         40.38905        31.70759         1.22625
C         39.34707        30.97173         0.53410
C         40.30227        33.04474         1.44666
C         39.16320        33.82337         0.98708
C         39.09355        35.21602         1.25746
O         24.99512        46.75816         2.65365
O         16.79647        34.88812        -1.44133
O         34.26924        22.53122        -1.48260
O         13.19865        23.74381         1.61472
O         14.44785        43.00698         0.10607
O         12.38834        42.25107         2.93382
O         29.05237        21.42347        -1.91010
O         30.09803        33.76764         1.52023
O         26.99013        48.11315         2.26414
O         22.16489        38.69538         2.18483
O         31.14138        44.41706        -0.46654
O         26.55628        31.54151        -1.37186
O         28.18689        40.68865         2.18513
O         37.84286        28.97967        -1.36390
O         21.52111        17.32014         0.99867
O         24.91809        16.18151         1.46315
O         26.64691        52.10321        -2.59445
O         23.96391        22.99365         1.62706
O         22.26030        47.94471         2.34172
O         14.90152        20.70009         1.40217
O         18.85083        35.47850         1.45026
O         32.93034        20.24881        -1.20077
O         25.63247        37.04014        -1.45925
O         31.18489        27.38918        -1.55300
O         21.28575        36.17165        -1.38900
O         20.68944        29.29587         2.03735
O         33.11670        27.30223         1.49472
O         21.25803        10.21318         1.25286
O         25.30217        12.24904        -2.25753
O         36.77321        38.14985        -0.55202
O         15.06909        22.96127        -1.32977
O         25.31830        18.56449        -1.12862
O         30.22450        38.25794        -1.41823
O         31.24732        22.94946        -2.32922
O         23.64565        33.69311         1.40966
O         34.57547        26.09064        -1.66541
O         15.60759        28.21833         2.00993
O         25.52911        23.62677        -1.58513
O         31.92977        38.70270         1.69020
O          8.78657        33.77943        -1.28051
O         10.98485        40.00077         2.44003
O         15.55316        37.28124        -0.96144
O         18.19699        40.80448         3.02682
O         17.41097        16.47850        -2.17787
O         37.87264        31.52149        -1.47337
O         27.54204        27.35419        -1.50616
O         19.96175        40.20103        -0.10393
O         15.32171        33.71289         1.57909
O         11.42449        29.28890        -1.41186
O         29.10755        44.28760         2.74491
O         30.08521        35.59382        -1.56137
O         20.92018        12.00324        -1.98773
O         17.12917        26.27478        -0.86594
O         21.48339        47.27806        -1.17302
O         18.67228        49.46510        -2.16414
O          7.42558        27.14412        -1.01257
H          7.92733        27.45656        -1.79367
O         37.28357        34.09972        -1.77861
H         37.51468        33.18903        -2.09780
O         30.77143        19.40203         1.70863
H         30.44342        18.66237         2.26987
O         22.33153        49.96462        -2.90650
H         22.18523        48.99494        -2.97379
O         25.68532        20.42819         2.06058
H         26.27567        19.71415         2.41542
O         26.90094        18.04806         2.16394
H         26.21057        17.37860         2.39511
O         17.22384        48.94689         2.19764
H         17.56731        48.25397         2.81775
O         17.02616        31.48226         2.00265
H         17.91473        31.23184         2.33955
O         15.69963        39.95740         3.27554
H         16.58368        40.21479         3.64409
O         23.91836        25.52071        -1.90809
H         24.24005        24.70434        -2.36247
O         29.39442        26.50331         1.58302
H         29.82379        27.29988         1.99907
O         19.75401        42.65831         3.51448
H         20.63149        43.09178         3.69022
O         22.16951        33.77969        -1.91788
H         21.60871        34.43951        -2.38648
O         18.27287        32.95207        -1.94608
H         17.94320        33.76518        -2.39707
O         29.46534        16.63757         2.06489
H         29.40099        15.69665         2.33450
O         19.54578        29.26562        -1.40319
H         18.89660        29.80173        -1.90640
O         25.95041        47.84490        -1.19769
H         25.35562        48.21479        -1.88602
O         19.66969        22.94203        -1.57453
H         18.94493        22.56272        -2.11526
O         25.85857        27.28511         1.72126
H         25.13986        27.76424         2.18688
O         30.90165        28.68551         1.85905
H         31.79004        28.19953         1.96157
O         27.97684        31.82991         1.97333
H         28.72772        32.33747         2.36127
O         23.15563        10.94449        -2.38862
H         23.90327        11.28669        -2.93627
O         21.10859        16.29462        -2.48053
H         20.42478        15.84805        -3.02529
O         19.57809        12.63446         1.35039
H         18.76672        13.06509         1.69165
O         18.21577        27.52785         2.41755
H         17.35732        27.91715         2.71094
O         20.72226        31.95220         1.75424
H         20.76316        30.99554         2.08784
O         19.46798        37.80600         2.64979
H         19.37025        36.82656         2.71420
O         24.48677        55.88221        -3.57043
H         24.48262        56.72288        -4.07325
O         13.34068        20.49957        -1.95304
H         12.55769        20.10380        -2.39027
O         22.08047        44.01114         3.37990
H         21.86354        44.93850         3.65567
O         33.28159        42.05656        -1.16001
H         33.04416        42.99205        -1.34196
O         27.07933        40.34785        -1.27617
H         26.49203        39.79263        -1.83234
O         20.67753        46.35279         3.15737
H         21.27622        47.17089         3.31705
O         24.21053        55.15188         0.00769
H         23.90628        54.33638         0.46065
O         20.37878        22.94925         2.00884
H         21.21165        23.13661         2.49390
O         23.64566        11.12459         1.20168
H         22.82751        11.09913         1.75424
O         22.14205         7.79630         1.60642
H         21.59611         8.46107         2.08757
O         18.08947        46.48155         3.11208
H         19.00355        46.34177         3.48513
O         18.03047        24.47722         2.18545
H         18.80010        23.94519         2.50527
O         37.94241        24.59705         0.47703
H         38.04936        24.52813        -0.49411
O         23.03727         6.21842        -2.38172
H         23.85201         6.63347        -2.73858
O         23.29429        52.37114        -3.42906
H         23.19194        51.40895        -3.62065
O         21.06476        19.09900        -2.16924
H         21.11469        18.18591        -2.55034
O         22.07203        52.19151         0.02760
H         21.33636        51.72942         0.48293
O         15.91328        18.35284         1.61312
H         15.39900        18.99508         2.15690
H          4.89805        31.33084         0.79356
H          4.85021        33.79461         0.81735
H          7.55088        27.15283         1.03814
H          6.12127        29.19465         0.60718
H          6.08549        35.97205         0.65829
H          7.31277        38.10999         0.55753
H          9.71623        22.71833         0.05488
H          8.53029        24.86001         0.22223
H          8.49753        40.15988         0.20217
H         10.15672        42.42045         0.22504
H         12.32707        18.24728        -0.51656
H         10.95806        20.51052        -0.28555
H         11.06696        44.58119         1.15353
H         12.29375        46.66260         1.04466
H         14.84423        13.99898        -0.39698
H         13.54426        16.10763        -0.20611
H         13.49842        48.65710         0.42344
H         14.69301        50.60473        -0.49725
H         17.33194         9.76424        -0.62795
H         16.06963        11.90138        -0.67954
H         16.15060        52.38697        -1.60873
H         17.27066        54.24835        -2.22391
H         19.81618         5.53029        -0.37522
H         18.63643         7.60834        -0.63661
H         18.39615        56.43708        -2.38205
H         19.50489        58.64599        -2.31837
H         23.23868         2.16249        -0.37713
H         21.10061         3.39894        -0.14992
H         22.71669        62.20667        -2.09253
H         20.62851        60.86679        -2.22302
H         25.39431         3.35569        -0.63445
H         26.65103         5.49599        -0.79911
H         26.28739        59.06694        -1.60996
H         24.93468        61.10075        -1.89279
H         27.87117         7.58850        -0.98506
H         29.13940         9.76329        -0.79028
H         29.00122        54.97496        -1.13055
H         27.64864        56.98595        -1.33887
H         30.37516        11.92194        -0.41688
H         31.57425        14.04785        -0.26220
H         31.64592        50.88375         0.05229
H         30.35445        52.94943        -0.47152
H         32.82510        16.07956         0.09329
H         34.08080        17.97408         0.81372
H         34.18372        46.68380         0.90502
H         32.92483        48.81018         0.53551
H         34.78707        20.86443         1.53642
H         36.19687        22.75869         1.13039
H         36.55389        42.29664         1.44554
H         35.41294        44.48711         1.24306
H         36.61371        25.32222         1.86062
H         38.88952        26.89920         0.97732
H         38.56674        37.59761         2.25259
H         37.64080        40.30015         1.82775
H         40.12751        29.07441         1.10221
H         41.25400        31.14032         1.59967
H         41.10167        33.57014         1.98827
H         39.90172        35.67409         1.84637
