         272
 CSIRO Nanostructure Databank - Neutral Graphene Oxide Data Set
C        -10.39710         0.84665         1.78114
C         -9.34559         1.61802         1.01651
C         -8.99776         0.85122        -0.28009
C         -8.12961         1.56701        -1.33524
C         -6.64620         0.96942        -1.17900
C         -5.37779         1.68594        -1.62532
C         -4.05380         0.83723        -1.58789
C         -2.71561         1.50418        -1.86551
C         -1.39248         0.70781        -1.79702
C         -0.07414         1.44402        -2.14284
C          1.26312         0.70630        -1.70837
C          2.53384         1.49788        -1.47399
C          3.81728         0.82606        -0.98812
C          5.09118         1.59296        -0.83926
C          6.31323         0.96663        -0.22546
C          7.60072         1.54389        -0.74659
C          8.86138         0.82649        -0.43888
C         10.14881         1.58474        -0.16938
C         11.32728         0.65397        -0.41192
C         -9.64818         3.06231         0.76001
C         -8.83379         3.76424        -0.11615
C         -8.10953         3.05548        -1.11631
C         -6.25831         4.35099        -2.02117
C         -5.23210         3.20672        -1.75420
C         -3.86388         3.81258        -1.48014
C         -2.61968         2.99711        -1.66293
C         -1.31842         3.48557        -1.07776
C         -0.06724         2.96207        -1.75190
C          1.19637         3.74601        -1.54409
C          2.48107         2.99257        -1.27401
C          3.75102         3.75358        -0.98056
C          5.10194         3.10405        -0.65633
C          6.36242         3.78390        -1.18723
C          7.63513         3.01655        -1.06531
C          8.90693         3.72481        -0.74370
C         10.19208         2.92564        -0.95377
C         -8.78180         5.23539        -0.09467
C         -7.65965         5.89637        -0.42593
C         -6.33347         5.49199        -1.01246
C         -5.19124         5.54568        -0.00165
C         -3.90466         4.84466        -0.36588
C         -2.60285         5.35505         0.21755
C         -1.30060         4.74540        -0.26451
C         -0.14283         5.70305        -0.41720
C          1.15364         5.16515        -0.98371
C          2.43403         5.89961        -0.68440
C          3.77087         5.25416        -0.97300
C          5.06982         5.92796        -0.62683
C          6.44174         5.30406        -0.97065
C          7.60860         5.73823        -0.09132
C          8.86165         4.99637        -0.26406
C         -7.23998         7.32362        -0.62163
C         -6.43825         7.75212         0.62323
C         -5.17119         6.87282         0.74472
C         -3.84320         7.48897         1.06348
C         -2.57416         6.66584         0.96745
C         -1.23428         7.36087         1.28532
C         -0.14478         7.04625         0.27013
C          1.14710         7.79034         0.52661
C          2.44718         7.17269         0.12512
C          3.67012         7.45659         0.95299
C          4.98453         6.87380         0.53836
C          6.24973         7.53494         1.10480
C          7.53834         6.92232         0.59408
C         -6.15773         9.23195         0.72372
C         -4.94466         9.76715         0.90451
C         -3.67430         8.97033         0.76587
C         -2.48289         9.56594         1.45715
C         -1.30662         8.85879         1.52773
C         -0.07383         9.47991         1.88573
C          1.16769         8.87934         1.55311
C          2.37946         9.43062         1.93430
C          3.71523         8.73510         1.81905
C          4.87300         9.59252         1.29890
C          6.05632         9.03917         0.98248
C        -10.29169        -0.48413         1.89896
C         -9.13952        -1.21316         1.24752
C         -8.90588        -0.63416        -0.15575
C         -7.90052        -1.32958        -1.08784
C         -6.58584        -0.52549        -0.95696
C         -5.30041        -1.29749        -0.79850
C         -4.00059        -0.50912        -0.87494
C         -2.68566        -1.24260        -0.68463
C         -1.39780        -0.71833        -1.31998
C         -0.08542        -1.55591        -1.23462
C          1.26297        -0.75890        -1.24043
C          2.48174        -1.31454        -0.51241
C          3.70145        -0.47307        -0.23387
C          4.91439        -1.08985         0.42742
C          6.26267        -0.39200         0.38812
C          7.53502        -1.20922         0.46999
C          8.81959        -0.57004         0.10201
C          9.92446        -1.45433        -0.47214
C         11.23248        -0.68481        -0.47924
C         -9.25222        -2.71284         1.25667
C         -8.51024        -3.47115         0.41298
C         -7.91442        -2.93222        -0.87796
C         -6.53573        -3.60846        -1.13249
C         -5.31277        -2.80635        -0.77492
C         -3.99545        -3.52402        -0.49732
C         -2.73427        -2.73092        -0.39039
C         -1.42635        -3.43741        -0.14005
C         -0.15769        -2.65648        -0.18814
C          1.11125        -3.32488         0.28145
C          2.38417        -2.55312         0.34739
C          3.63763        -3.28139         0.82742
C          4.95253        -2.54340         0.84815
C          6.24638        -3.32011         0.90518
C          7.46397        -2.71771         0.19071
C          8.78210        -3.41772         0.53687
C          9.94099        -2.79069         0.24940
C         -8.43369        -4.92328         0.55269
C         -7.54939        -5.71547        -0.11118
C         -6.45920        -5.09743        -0.93086
C         -5.10413        -5.79723        -0.92069
C         -3.85765        -5.00311        -0.70363
C         -2.57255        -5.64653        -0.28954
C         -1.42611        -4.92946        -0.09903
C         -0.08789        -5.60553        -0.21837
C          1.15541        -4.81251         0.07961
C          2.44659        -5.55231         0.33253
C          3.62986        -4.78482         0.86526
C          4.92337        -5.54129         1.02803
C          6.23260        -4.82380         1.05299
C          7.49059        -5.59715         0.83060
C          8.76847        -4.82472         1.11749
C         -7.48510        -7.19610         0.24571
C         -6.01258        -7.62953         0.48386
C         -5.13499        -7.31231        -0.73734
C         -3.74526        -7.95047        -0.58879
C         -2.51121        -7.13875        -0.33555
C         -1.26545        -7.77725         0.25868
C          0.00401        -7.15484        -0.32245
C          1.04443        -7.72321         0.67858
C          2.38857        -7.02825         0.57479
C          3.63325        -7.71953         1.05782
C          4.90128        -6.99700         0.68714
C          6.19499        -7.72607         0.55443
C          7.46134        -6.94588         0.69375
C         -5.90553        -9.06924         0.92648
C         -4.87871        -9.86588         0.61141
C         -3.76999        -9.45933        -0.33218
C         -2.42622       -10.01560         0.06288
C         -1.26295        -9.29202         0.18180
C         -0.01245        -9.95215         0.35013
C          1.18370        -9.23574         0.57417
C          2.39972        -9.89656         0.72744
C          3.65869        -9.21688         1.05689
C          4.98623        -9.87805         0.92496
C          6.14190        -9.20009         0.76376
O          5.39840        -7.32047        -0.63894
O          4.17320         6.25720         1.61128
O          8.31630         0.80962        -1.79879
O         -3.51698        -3.09427         0.79785
O         -2.82557        -7.65571        -1.68071
O          2.69574        -6.48534        -0.75405
O         -2.67820         5.39960         1.67001
O          8.47756        -0.77459         1.50361
O        -10.04560        -0.00515        -0.80059
O         -1.10331         3.43932         0.37289
O          1.89443         8.27911        -0.63599
O         -1.57071        -0.40881        -2.72115
O          0.38044        -7.39777         1.95062
O          1.72641         6.08179        -1.94655
O         -7.59834         3.72197        -2.16792
O         -3.05999         3.96773        -2.67380
O          4.78149         0.93730        -2.09094
O         -3.24452        -0.41766         0.37068
O          2.27373        -1.55735        -1.92543
O         -4.69780         6.98592         2.12217
O         -0.95505        -2.59603         1.01354
O          3.92962        -0.32138         1.19504
O         -1.11016        -7.40907         1.67527
O         -6.53812         0.44620         0.15944
O          2.83446         3.31322         0.10977
O         -0.74632         6.86231         2.60316
O          5.74838        -2.64845         2.07790
O          6.95483         5.96872        -2.08576
O         -3.50565         0.93169        -2.92625
O          7.22670        -2.86306        -1.19392
O         -0.59996         6.92777        -1.09204
O          5.57900        -5.26312         2.29573
O         -8.84152        -3.42655        -1.79586
O         -4.27234        -5.40807        -2.05387
O          3.32967        -4.00815         2.04850
O          4.42370         6.14027        -1.92108
O          0.68842        -5.01563        -1.30669
O          1.47091        -2.58744         1.48418
O         -4.83411         4.33064         0.67055
O         -6.26837         6.85578        -1.63554
O          0.54072         3.72078        -2.83553
O         -5.58327        -2.02610         0.44624
O         -6.62954        -4.49632        -2.26506
O          6.28998         0.80747         1.21871
O          2.21457         0.97760        -2.78285
O          3.56508        -8.38662         2.32165
O         -5.37733         2.33749        -2.91330
O          6.99527         3.29048        -2.37307
O          5.27765         3.32728         0.76786
H          4.48699         2.98576         1.24418
O         -0.09644         1.41101        -3.56767
H          0.68006         1.91287        -3.90297
O          3.99849         8.39704         3.19119
H          4.89267         7.96230         3.20935
O         -3.34277         8.95288        -0.66478
H         -3.14013         9.86797        -0.95276
O          8.89515        -4.75005         2.54931
H          8.09744        -4.31012         2.91270
O         10.13659         1.94584         1.23312
H          9.94601         1.13876         1.75933
O         10.35811         2.66440        -2.34310
H          9.60870         2.09638        -2.64037
O         -5.94192         4.87694        -3.25945
H         -5.76160         4.14417        -3.88746
O         -8.28512        -1.17017        -2.45798
H         -8.79270        -2.01671        -2.67073
O          9.58202        -1.73441        -1.84812
H          8.68941        -2.19548        -1.84576
O          6.32203         7.24295         2.53498
H          6.11859         6.28887         2.65347
O         -5.73145        -7.86062        -1.92500
H         -5.23963        -7.48851        -2.68983
O         -8.11563        -8.01493        -0.72954
H         -7.55923        -8.00708        -1.54321
O         -7.94548        -0.92738         2.05125
H         -7.15434        -1.33465         1.62179
O         -8.14242         1.72534         1.82171
H         -7.87554         0.80155         2.09246
O         -5.46987        -6.79514         1.54277
H         -5.87939        -7.05635         2.39421
O         -4.05187       -10.10015        -1.60539
H         -3.49552        -9.64732        -2.27733
O         -0.14376         5.56071         2.40552
H         -0.90515         4.94498         2.57652
O         -8.61311         1.40354        -2.65361
H         -8.77459         0.43175        -2.80232
O         -7.28069         7.42798         1.75205
H         -6.69772         7.39656         2.54426
O         -0.06927        -2.34088        -2.44210
H         -0.08650        -1.72629        -3.21041
O          0.23521        -7.55175        -1.65184
H          0.79574        -6.85921        -2.07503
H         12.15150        -1.27545        -0.62554
H         12.32258         1.12379        -0.46022
H         11.06868         3.52625        -0.60601
H          9.79302         5.49742         0.04565
H          8.44459         7.27182         1.11637
H          6.89801         9.66533         0.65130
H          4.74089        10.68384         1.24341
H          2.35895        10.29810         2.61346
H         -0.08651        10.47241         2.36078
H         -2.47490        10.64683         1.66868
H         -4.84194        10.85567         1.03911
H         -7.04850         9.87760         0.77245
H         -7.96278         8.07633        -1.00727
H         -9.65331         5.78233         0.29377
H        -10.33671         3.61051         1.42182
H        -11.21985         1.39662         2.26250
H        -11.03208        -1.06257         2.47114
H         -9.76083        -3.18422         2.11281
H         -9.12345        -5.38910         1.27590
H         -8.04603        -7.34438         1.20781
H         -6.70335        -9.44457         1.58723
H         -4.85471       -10.90211         0.98188
H         -2.35743       -11.11558         0.07674
H          0.01669       -11.05180         0.30940
H          2.42115       -10.98950         0.58968
H          5.00883       -10.97550         1.01009
H          7.09208        -9.75463         0.72891
H          8.40754        -7.50788         0.64831
H          9.65479        -5.39523         0.74397
H         10.90509        -3.29333         0.42965
