         661
 CSIRO Nanostructure Databank - Neutral Graphene Oxide Data Set
C          5.71511        31.75461        -0.43553
C          5.75048        33.06789        -0.10175
C          8.34660        27.50689        -1.49712
C          8.30871        28.92166        -1.21812
C          7.12183        29.64344        -1.21413
C          8.04379        31.99197        -1.08174
C          7.02178        31.00372        -0.56059
C          8.22201        33.18545        -0.45660
C          6.99567        33.84662        -0.01705
C          8.29197        35.96147        -0.03955
C          7.03860        35.20206         0.17556
C          8.36308        37.38171         0.25395
C         10.82473        23.25233        -1.12024
C         10.69946        24.60110        -1.50996
C          9.50671        25.32705        -1.49817
C         10.77228        27.36955        -0.93054
C          9.51405        26.75688        -1.38350
C         10.68100        28.69518        -0.18732
C          9.58826        29.52473        -0.80220
C         10.93346        31.62255        -0.47893
C          9.85780        30.83250        -1.05244
C         10.85781        32.97765        -0.25774
C          9.55462        33.72573         0.02536
C         10.86680        35.90333         0.26722
C          9.62639        35.22143        -0.17317
C         10.82562        37.31038         0.39861
C          9.59525        38.05663         0.29788
C         10.85654        40.20500         0.33282
C          9.63156        39.48322         0.30892
C         10.90590        41.60288         0.13770
C         13.48712        19.36900         0.42405
C         12.95933        20.30593        -0.45290
C         12.10001        21.42102        -0.26988
C         13.10066        23.02637        -2.20376
C         12.03589        22.51785        -1.16020
C         13.22767        24.60703        -1.97838
C         11.96799        25.35428        -1.69304
C         13.17790        27.18561        -0.35658
C         11.95113        26.68879        -1.02494
C         13.19986        28.63280         0.11216
C         12.00446        29.45594        -0.13832
C         13.30338        31.52894         0.33261
C         12.10860        30.82992        -0.14257
C         13.29906        32.89611         0.52601
C         12.15909        33.73978        -0.05245
C         13.31492        35.83701         0.70719
C         12.01435        35.12659         0.54327
C         13.32228        37.32206         0.69883
C         12.01865        38.04378         0.93791
C         13.30236        40.18225         0.65263
C         12.08292        39.50138         0.56296
C         13.33580        41.60397         0.55151
C         12.12457        42.31336         0.25010
C         13.35407        44.44110         0.29718
C         12.16441        43.72254         0.08294
C         13.40582        45.86264         0.08532
C         16.08695        15.42999         1.72235
C         16.05099        16.65467         0.99024
C         14.80986        17.38148         0.89120
C         15.60906        18.84752        -0.96486
C         14.60183        18.50454         0.09336
C         15.68302        20.19306        -1.58747
C         14.53139        20.88332        -1.88566
C         15.66473        22.79460        -2.71192
C         14.46198        22.27948        -2.23440
C         15.67276        25.00573        -2.19333
C         14.49757        25.29349        -1.55859
C         15.75311        27.20586        -0.40559
C         14.46926        26.43913        -0.59911
C         15.71376        28.68337        -0.18839
C         14.47814        29.36168         0.26644
C         15.77320        31.38537         0.85281
C         14.49506        30.71541         0.51000
C         15.79345        32.84594         1.20300
C         14.47189        33.58333         1.15897
C         15.80836        35.84565         1.44100
C         14.49120        35.09085         1.27631
C         15.81779        37.39144         1.45878
C         14.54088        38.08134         1.03177
C         15.79967        40.18313         1.04487
C         14.53848        39.44423         0.91118
C         15.75198        41.60448         1.14582
C         14.54790        42.33151         0.82929
C         15.66293        44.59968         1.23169
C         14.53010        43.74372         0.71722
C         15.78634        45.94266         0.53792
C         14.60293        46.58802         0.14445
C         15.87358        48.80327         0.16406
C         14.62987        48.04787        -0.27421
C         15.90563        50.19599         0.08098
C         18.36748        10.96088         2.56123
C         18.32539        12.34508         2.12065
C         17.14748        13.13144         2.14272
C         18.50235        15.03874         1.61367
C         17.19870        14.52552         1.83585
C         18.50737        16.93166         0.61770
C         17.15986        17.24318         0.29511
C         18.23006        18.83727        -1.29293
C         16.97593        18.15448        -0.83545
C         18.23891        20.11846        -1.75798
C         16.93626        20.64778        -2.29752
C         18.16988        22.76295        -2.70384
C         16.93605        22.12270        -2.57396
C         18.18765        24.98634        -2.25508
C         16.96612        25.55736        -1.82755
C         18.24428        27.31871        -0.77937
C         17.00012        26.69393        -1.00838
C         18.27844        28.71495        -0.39909
C         16.99790        29.43947        -0.26719
C         18.26701        31.60091         0.19270
C         17.07331        30.76261         0.42710
C         18.30394        32.94390         0.47271
C         17.11505        33.60301         1.08630
C         18.32415        35.85954         0.73671
C         17.11276        35.11564         1.19021
C         18.30487        37.28032         0.73508
C         16.96727        37.99131         0.62519
C         18.30754        40.11983         1.10988
C         17.00426        39.47048         0.96372
C         18.32884        41.62757         1.24225
C         17.00691        42.34221         1.37351
C         18.18531        44.49965         0.75669
C         16.98113        43.83139         1.33441
C         18.21002        45.96344         0.85423
C         17.02942        46.65843         0.63449
C         18.26751        48.81287         0.78266
C         17.04068        48.10410         0.53699
C         18.26506        50.27506         0.79687
C         17.05152        50.97515         0.43214
C         17.89638        53.31685         0.68376
C         16.99385        52.38104         0.15838
C         18.31153        54.58587         0.21833
C         20.92411         6.94808         3.98477
C         20.82586         8.21178         3.34128
C         19.62689         8.91781         3.22295
C         20.84872        10.92202         2.33188
C         19.54260        10.22617         2.64517
C         20.69865        12.05817         1.35211
C         19.51552        12.89897         1.55381
C         20.78539        14.84472         0.60040
C         19.60282        14.25755         1.20196
C         20.76593        16.09967        -0.24846
C         19.53036        16.94854        -0.30378
C         20.77193        18.86345        -1.17463
C         19.50421        18.02332        -1.35404
C         20.71480        20.25214        -1.60455
C         19.49069        20.86738        -1.92483
C         20.65656        23.08145        -2.19245
C         19.44378        22.25944        -2.27078
C         20.66012        24.54397        -1.93397
C         19.43195        25.34613        -1.69917
C         20.69359        27.28887        -0.69641
C         19.43695        26.60757        -1.04005
C         20.68967        28.77950        -0.62608
C         19.44037        29.45241        -0.43682
C         20.68830        31.67072        -0.46676
C         19.36968        30.95755        -0.60730
C         20.68871        33.07887        -0.31039
C         19.48382        33.74607         0.13661
C         20.63486        35.96525        -0.24256
C         19.47230        35.14349         0.29962
C         20.80585        37.24501         0.56959
C         19.50364        38.01637         0.59087
C         20.74895        40.16203         0.54167
C         19.53794        39.42192         0.68218
C         20.71129        41.61491         0.54123
C         19.53549        42.31846         0.76430
C         20.69718        44.58377         0.14099
C         19.43344        43.75954         0.42801
C         20.74014        45.93089         0.88009
C         19.45800        46.61928         1.34219
C         20.70924        48.79792         1.28380
C         19.43884        48.09704         1.06139
C         20.78406        50.18195         0.70155
C         19.50836        50.93256         0.99215
C         20.81165        53.05284         1.08212
C         19.63352        52.28885         1.30102
C         20.77857        54.46359         0.89742
C         19.56674        55.17529         0.52713
C         20.86672        57.27549         0.39674
C         19.68520        56.58349         0.27707
C         20.86148        58.78426         0.27013
C         23.46807         4.35149         4.85754
C         22.23568         4.99711         4.70963
C         23.44254         7.07906         4.00631
C         22.15064         6.30383         4.17981
C         23.35990         8.14984         2.95791
C         22.04508         8.68946         2.63082
C         23.27473        10.68520         1.57776
C         22.00373        10.02992         1.94505
C         23.25832        12.00045         1.05307
C         21.97009        12.69361         0.85547
C         23.21319        14.74861         0.11266
C         21.97576        14.12882         0.52603
C         23.24075        16.15767        -0.20079
C         21.98611        16.98192         0.05321
C         23.22112        19.06712        -0.68796
C         21.93075        18.28894        -0.71892
C         23.15506        20.30914        -1.54144
C         21.94557        20.98331        -1.77039
C         23.18025        23.12229        -2.27133
C         21.89682        22.39181        -2.11741
C         23.17257        24.62312        -2.02567
C         21.86374        25.19900        -1.68193
C         23.14045        27.35975        -1.37094
C         21.93188        26.54244        -1.06632
C         23.08436        28.82872        -1.16782
C         21.84641        29.51660        -0.78138
C         23.11200        31.67187        -0.90355
C         21.88048        30.96139        -0.69416
C         23.09439        33.08034        -0.92880
C         21.91329        33.79727        -0.56581
C         23.12882        35.95057        -0.51238
C         21.94519        35.21958        -0.40092
C         23.16415        37.37678        -0.28224
C         21.99972        38.06438         0.11799
C         23.18134        40.23315        -0.01402
C         21.97060        39.47765         0.23234
C         23.16266        41.62410         0.06938
C         21.94471        42.36424         0.29907
C         23.22841        44.49534         0.39478
C         21.95325        43.75771         0.31373
C         23.23054        45.94236         0.76760
C         21.91985        46.58290         1.05348
C         23.27759        48.74847         1.22690
C         21.98647        48.02290         1.40989
C         23.26601        50.17455         1.15121
C         22.04791        50.91225         1.06044
C         23.28783        53.02961         1.13211
C         22.05397        52.31279         1.06926
C         23.27385        54.44950         1.05298
C         22.04085        55.16500         0.87054
C         23.35326        57.24839         0.61199
C         22.09430        56.57093         0.65624
C         23.41294        58.75479         0.41089
C         22.17287        59.31288        -0.24341
C         23.50639        60.90926        -1.52701
C         22.24081        60.34305        -1.12272
C         24.66741         4.93514         4.42912
C         25.83186         6.79834         3.30639
C         24.68461         6.22747         3.86397
C         25.80314         8.07036         2.67011
C         24.52237         8.72031         2.45264
C         25.70752        10.55285         1.27000
C         24.49439         9.97658         1.72897
C         25.67098        11.80619         0.44124
C         24.41667        12.62018         0.56037
C         25.66342        14.61109        -0.26278
C         24.40453        13.96969         0.09838
C         25.60001        15.95446        -0.90445
C         24.38512        16.77991        -0.67363
C         25.62483        18.79455        -1.33900
C         24.43598        18.18779        -0.97297
C         25.67394        20.22204        -1.49503
C         24.43875        20.91379        -1.88291
C         25.72744        23.09586        -1.72949
C         24.49834        22.39646        -2.17319
C         25.76262        24.60520        -1.89373
C         24.44095        25.31289        -1.64461
C         25.63527        27.46364        -1.15622
C         24.44567        26.65928        -1.36298
C         25.57323        28.83665        -0.97194
C         24.33857        29.56373        -1.01374
C         25.67951        31.58170        -1.35156
C         24.34843        30.94367        -1.06183
C         25.58473        33.05478        -1.82875
C         24.29267        33.81196        -1.40763
C         25.63146        36.00763        -1.01711
C         24.32582        35.30471        -1.11385
C         25.63250        37.40456        -0.73343
C         24.40224        38.10404        -0.46384
C         25.65376        40.20850        -0.38617
C         24.41055        39.50950        -0.31097
C         25.67255        41.69340        -0.36876
C         24.36669        42.46271        -0.29398
C         25.72160        44.42717         0.74971
C         24.43166        43.63706         0.71796
C         25.71876        45.78989         1.31722
C         24.40364        46.54052         1.53615
C         25.72528        48.74394         1.20864
C         24.48935        48.04497         1.27534
C         25.73552        50.16636         1.18462
C         24.50458        50.88523         1.19066
C         25.74796        53.02481         1.29632
C         24.51096        52.31085         1.19329
C         25.73514        54.42978         1.29170
C         24.52096        55.14243         1.08641
C         25.84444        57.20448         0.62763
C         24.54394        56.55459         0.83241
C         25.85055        58.49499        -0.03682
C         24.69544        59.18753        -0.27017
C         24.68179        60.36468        -1.10779
C         26.96952         8.66338         2.14691
C         28.19039        10.42004         0.79428
C         26.93297         9.88499         1.45195
C         28.22511        11.94228         0.72456
C         26.91168        12.65982         0.58380
C         28.16516        14.79912        -0.08439
C         26.87057        14.01497        -0.00599
C         28.17959        15.80102        -1.26886
C         26.86028        16.57662        -1.41329
C         28.13941        18.80760        -1.28270
C         26.89499        18.07095        -1.74272
C         28.11960        20.20215        -1.17346
C         26.86304        20.92386        -1.37161
C         27.97306        22.96800        -0.53818
C         26.83500        22.37310        -1.33925
C         27.96531        24.48790        -0.47367
C         26.84657        25.28073        -1.06154
C         27.99463        27.43909        -0.33729
C         26.98581        26.78602        -1.27126
C         27.97214        28.98135        -0.27266
C         26.78414        29.69969        -0.95500
C         28.03543        31.75263        -0.53336
C         26.80672        31.12167        -0.46621
C         28.10744        33.15667        -0.96828
C         26.87780        33.85858        -1.48610
C         28.08479        36.00450        -1.00310
C         26.84044        35.32130        -1.19336
C         28.11630        37.40448        -0.81744
C         26.87745        38.10912        -0.69960
C         28.15610        40.20018        -0.21873
C         26.86076        39.52207        -0.50020
C         28.17824        41.62711         0.19764
C         26.92911        42.41074        -0.01081
C         28.18510        44.52320         0.47617
C         26.91367        43.81533         0.47302
C         28.21526        45.88541         0.69801
C         27.02832        46.55210         1.26372
C         28.19122        48.70461         1.25182
C         27.00126        48.03889         1.25534
C         28.27129        50.16945         0.95085
C         26.97175        50.90128         1.19165
C         28.26099        53.01513         1.38516
C         26.98458        52.28132         1.31579
C         28.24961        54.41237         1.39753
C         26.99345        55.20475         1.60054
C         27.00609        56.54342         0.91036
C         29.42083        12.60438         0.18802
C         30.60413        14.57692        -0.62550
C         29.41967        13.93695        -0.19164
C         30.63659        15.97259        -0.93067
C         29.40202        16.67367        -1.11491
C         30.60973        18.79983        -1.10027
C         29.37486        18.07686        -1.17677
C         30.59836        20.22117        -1.00850
C         29.34308        20.93580        -0.97930
C         30.51395        23.08356        -0.65669
C         29.32580        22.34889        -0.82760
C         30.53126        24.49526        -0.47097
C         29.25816        25.12036         0.05006
C         30.53112        27.39460         0.13799
C         29.21782        26.65586         0.05072
C         30.53873        28.90362        -0.14003
C         29.30028        29.65413        -0.42094
C         30.55480        31.76881        -0.59997
C         29.30666        31.03489        -0.48054
C         30.58960        33.15283        -0.65615
C         29.35154        33.91607        -0.70417
C         30.59929        36.00067        -1.26557
C         29.33564        35.27221        -0.92680
C         30.59873        37.44576        -0.83928
C         29.40716        38.10153        -0.73706
C         30.67552        40.28362        -0.33456
C         29.40686        39.61570        -0.82827
C         30.68258        41.64972         0.03996
C         29.43578        42.40062         0.14220
C         30.70325        44.49888         0.22997
C         29.41103        43.76872         0.23866
C         30.72805        45.98207         0.33075
C         29.42148        46.75742         0.38162
C         30.74776        48.74479         1.21913
C         29.48032        47.91966         1.38778
C         30.72657        50.09880         1.39285
C         29.43773        50.81346         1.71964
C         29.46299        52.29484         1.49225
C         31.85244        16.68182        -0.99945
C         33.07108        18.83146        -1.08644
C         31.86036        18.09662        -1.08111
C         33.06988        20.24081        -0.98499
C         31.81319        20.92051        -0.89380
C         33.03588        23.11412        -0.73121
C         31.79740        22.33655        -0.41069
C         33.00260        24.51802        -0.65958
C         31.73827        25.22291        -0.44360
C         32.94150        27.38292        -0.40452
C         31.76477        26.65225        -0.21507
C         32.97662        28.82876        -0.43093
C         31.79876        29.55192        -0.48174
C         33.07269        31.70149        -0.49834
C         31.81130        30.98810        -0.93403
C         33.10681        33.13655        -0.63567
C         31.86446        33.87349        -0.78293
C         33.11256        35.99755        -1.19296
C         31.86303        35.24731        -0.95293
C         33.15998        37.42424        -0.91649
C         31.88113        38.22284        -1.06873
C         33.10359        40.21636        -0.09083
C         31.88955        39.58360        -0.41420
C         33.11955        41.59400         0.22798
C         31.90795        42.30481         0.28296
C         33.19500        44.47620         0.60916
C         31.88910        43.73314         0.77579
C         33.19245        45.87238         0.71243
C         31.99104        46.64887         0.75506
C         31.97642        48.00378         1.04418
C         34.27769        20.99539        -0.95942
C         35.48247        23.16006        -0.92410
C         34.27288        22.41695        -0.88539
C         35.47634        24.56196        -0.84205
C         34.22140        25.23218        -0.75836
C         35.50559        27.45294        -0.68682
C         34.17510        26.69006        -0.79731
C         35.44005        28.83609        -0.22426
C         34.24957        29.53712        -0.32743
C         35.47260        31.71020         0.20150
C         34.21558        30.98138        -0.21157
C         35.55753        33.11170        -0.34623
C         34.35854        33.79768        -0.68009
C         35.70274        35.91692        -0.88230
C         34.43083        35.20846        -1.09436
C         35.79245        37.39666        -0.75469
C         34.43291        38.14382        -0.76346
C         35.62145        40.17826         0.17002
C         34.34254        39.38274         0.12035
C         35.58739        41.57972         0.34974
C         34.38585        42.30897         0.40642
C         34.38278        43.71687         0.54113
C         36.71514        25.30826        -0.72471
C         37.96722        27.40756        -0.26344
C         36.75321        26.67344        -0.54040
C         37.96553        28.74722         0.05556
C         36.67706        29.48645         0.34281
C         37.99108        31.66647         0.17696
C         36.73129        30.92381        -0.20045
C         38.03833        33.03657         0.01130
C         36.82004        33.72991        -0.42426
C         38.48278        36.10354         0.27383
C         36.82510        35.11825        -0.80061
C         38.01415        37.42183         0.62007
C         36.91281        38.04500         0.03313
C         36.80910        39.46130         0.24642
C         39.15465        29.49207         0.36819
C         40.32035        31.58985         1.00522
C         39.15373        30.87108         0.51826
C         40.37878        32.93507         0.96973
C         39.37374        33.78317         0.22718
C         39.16675        35.12815         0.92834
O         12.96770        27.51492         1.06153
O         23.97523        34.79123        -2.44514
O         25.96316        15.88898        -2.35692
O         16.59333        30.62222         1.80127
O         16.64713        35.43760         2.55188
O         34.83759        27.26081        -1.97516
O         26.39538        30.55702        -2.35107
O         26.80014        24.91324         0.33454
O         13.56385        36.58753        -0.56681
O         27.59399        12.61216         1.88438
O         38.04578        35.75056        -1.03635
O         22.96976        28.22293        -2.54614
O         28.16980        26.97375         1.02809
O         30.92261        45.30208        -0.97370
O         17.10034        43.18456         2.62392
O         15.68112        24.08755        -3.24230
O         21.50528        26.61014         0.33967
O         23.21305        24.07232        -3.39547
O         18.73612        16.37292         1.89052
O          9.02364        31.51168        -1.94482
O         14.11640        34.26915         2.41199
O         30.60084        28.32116         1.24936
O         35.34864        38.19449        -1.89546
O         16.00083        17.74233        -1.85043
O         21.27711        48.51611         2.61397
O         26.52422        42.26965        -1.43017
O         23.48343        45.55053        -0.60359
O         27.88085        33.39343        -2.44380
O         28.21649        40.56157         1.20992
O         18.54422        40.78126         2.41788
O         12.54552        25.34804        -3.05994
O         18.40854        43.98640        -0.63611
O         16.64274        33.04388         2.35137
O         21.73799         8.83230         1.17971
O         25.72399        11.21997        -0.99015
O         18.16204        24.04261        -3.27189
O         33.82632        35.50306        -2.40185
O         26.56660        45.91625         2.51416
O         15.24971        26.31008         0.63673
O         24.60143        21.43671        -3.26851
O         13.34260        20.17174        -1.79421
O         18.53647        52.92352         1.88514
O         21.08400        11.87097        -0.03450
O         16.15383        29.36407        -1.45866
O          8.98908        35.68918        -1.36624
O         20.68017        44.94804        -1.26425
H         19.75897        44.79602        -1.58663
O         13.44624        48.71385         0.17571
H         13.43051        48.68028         1.15421
O         28.25423         9.91186        -0.54923
H         27.43615        10.20601        -1.01791
O         26.07022        24.83475        -3.30411
H         25.29068        24.51598        -3.82003
O         18.98172        31.15595        -2.01662
H         19.67312        30.74536        -2.57894
O         34.17383        38.80773         1.46835
H         34.14147        39.55106         2.10733
O         31.84893        30.93518        -2.40199
H         32.02885        31.84261        -2.72862
O         19.54012        17.49627        -2.70079
H         20.29665        16.86172        -2.74184
O         21.95113        17.32135         1.45575
H         22.61530        18.04359         1.58869
O         29.14915        50.58136         3.14513
H         29.73997        51.16273         3.66885
O         24.26225        43.07069         2.04106
H         24.34291        43.79364         2.70083
O         29.29009        24.74144         1.46290
H         28.56207        25.25056         1.89096
O         21.08854        36.83777         1.93761
H         21.06850        37.63622         2.50591
O         12.61864        34.00013        -1.44139
H         12.84880        34.95459        -1.52845
O         11.89024        38.01928         2.40803
H         11.08592        38.52817         2.64427
O          7.45443        30.79882         0.84837
H          8.03795        30.00837         0.88331
O         21.00236        15.60550        -1.60918
H         20.41844        14.83195        -1.76129
O         29.52323        47.33638         2.70886
H         29.42278        48.06706         3.35615
O         36.72967        30.78100        -1.63902
H         36.90337        31.65834        -2.04035
O         19.76140        59.22954        -0.52257
H         19.87220        58.87870        -1.42958
O         16.58293        37.84291        -0.77347
H         17.33427        38.12902        -1.33459
O         24.05253        46.35826         2.93182
H         24.88081        46.49313         3.44877
O         23.61776         7.79111         5.29001
H         23.74473         7.10602         5.98080
O         26.94362        55.49741         3.05651
H         26.10134        55.97233         3.22309
O         23.40874        19.53120         0.71910
H         22.74895        20.23939         0.88290
O         26.95391        18.16206        -3.19690
H         26.33352        17.48155        -3.54497
O         35.44163        31.85071         1.66334
H         34.59571        32.28598         1.90073
O         15.26664        44.95227         2.59686
H         15.68727        44.27823         3.18545
O         30.59706        36.08370        -2.75420
H         30.40014        35.18584        -3.10108
O         23.43797        59.33664         1.76126
H         24.31489        59.13210         2.15018
O         31.82470        22.18645         1.07894
H         32.66006        21.72136         1.30190
O         25.50314        32.99246        -3.25737
H         26.36459        32.64033        -3.57585
O         28.24317        15.56710         1.14327
H         28.20611        14.92503         1.88686
O         16.00211        37.81070         2.82520
H         16.46352        37.07943         3.30120
O         31.64332        43.66080         2.21799
H         32.40240        43.19756         2.62983
O         31.85149        38.52984        -2.51899
H         31.68394        37.67210        -2.98421
O         10.33977        28.39434         1.19645
H         11.11876        27.91816         1.57542
O         24.08392        42.99534        -1.59916
H         24.94583        43.10488        -2.06499
O         12.50794        22.83497        -3.48990
H         12.25406        23.72503        -3.83716
O         28.56192        50.26292        -0.47627
H         28.79365        49.36246        -0.80822
O         27.52376        27.02637        -2.59247
H         26.98145        26.50391        -3.23410
O         39.97889        33.98797        -1.07620
H         39.43532        34.66480        -1.54439
O         19.45147        46.47084         2.81254
H         20.12785        47.10557         3.16008
O         16.85198        20.01229        -3.62882
H         16.71268        19.04874        -3.47431
O         29.20543        47.36222        -0.92117
H         29.58243        46.73799        -1.58512
O         36.57011        29.46110         1.78717
H         36.03209        30.23869         2.07548
O          9.46337        33.56341         1.48699
H          9.11405        32.66357         1.67240
O         27.55424        29.30987         1.10002
H         28.04405        28.68821         1.69263
O         25.71151        12.30560        -1.93957
H         24.77510        12.31674        -2.25630
O         20.24989        36.37259        -1.58844
H         20.35527        35.60163        -2.18507
O         20.83708        49.95204        -0.74711
H         20.94153        50.82045        -1.18954
O         29.33416        39.90214        -2.25407
H         30.16221        39.53813        -2.65728
O         21.28545        11.54548         3.58388
H         20.51665        12.00735         3.98049
O         28.37910        15.03550        -2.47469
H         27.48614        14.86877        -2.85915
O         27.70796        22.51633         0.82870
H         28.31118        23.04372         1.40895
H          4.75512        31.22176        -0.51233
H          4.80708        33.61290         0.05914
H          7.41164        26.99965        -1.77998
H          6.19418        29.13008        -1.51321
H          6.12892        35.76886         0.42451
H          7.43120        37.94440         0.42041
H          9.94347        22.76637        -0.67200
H          8.54266        24.79688        -1.47951
H          8.68812        40.03628         0.19260
H          9.97857        42.15467        -0.07566
H         13.07872        19.29917         1.44374
H         11.38074        21.40843         0.56558
H         11.24662        44.25886        -0.19932
H         12.48239        46.38403        -0.20786
H         15.10793        15.05151         2.05864
H         14.00453        17.08684         1.58196
H         14.59895        48.08444        -1.40075
H         14.99709        50.72257        -0.24743
H         17.42120        10.49141         2.87164
H         16.19116        12.67049         2.42824
H         16.23364        52.72297        -0.56111
H         17.63426        55.15877        -0.43453
H         20.00118         6.45594         4.33080
H         18.71183         8.47898         3.65138
H         18.77196        57.14607         0.03020
H         20.70818        59.20880         1.30205
H         23.48866         3.33047         5.26414
H         21.30871         4.45648         4.95127
H         23.50432        61.77839        -2.19940
H         21.31311        60.77094        -1.53106
H         25.60161         4.35676         4.47959
H         26.77556         6.23136         3.31624
H         26.80602        58.86463        -0.44014
H         25.64389        60.76585        -1.45967
H         27.93436         8.15070         2.27770
H         29.09634        10.04246         1.33239
H         29.20696        54.95369         1.45524
H         27.97364        57.03487         0.72592
H         30.32855        11.99917         0.04201
H         31.55186        14.01738        -0.59783
H         31.66352        50.67586         1.33011
H         30.41605        52.84187         1.57316
H         32.80545        16.13968        -0.91248
H         34.02898        18.29188        -1.12122
H         34.15609        46.40080         0.78805
H         32.92932        48.52882         1.21508
H         35.23860        20.46772        -1.04481
H         36.43970        22.62315        -0.99907
H         36.54215        42.11913         0.44490
H         35.35016        44.24274         0.55002
H         37.65190        24.73232        -0.67675
H         38.92417        26.86676        -0.33541
H         38.61731        38.01963         1.32162
H         37.72901        40.00138         0.52060
H         40.10127        28.94443         0.50023
H         41.13755        31.00640         1.45620
H         41.26461        33.45463         1.36539
H         39.52761        35.27544         1.95566
