         480
 CSIRO Nanostructure Databank - Neutral Graphene Oxide Data Set
C         37.95297        50.20933         1.52199
C         36.93039        50.96963         2.08513
C         37.80676        52.93985         0.99748
C         36.85916        52.34010         1.82908
C         40.09622        48.59727         0.30366
C         40.06413        50.01065         0.19846
C         38.91931        50.79893         0.68321
C         39.79310        52.80846        -0.58301
C         38.84142        52.18876         0.42578
C         39.93842        54.30815        -0.46166
C         42.46196        48.55121        -0.28987
C         41.24376        47.88744         0.00644
C         42.45268        49.97253        -0.39791
C         41.21323        50.66742        -0.27182
C         42.44353        52.87321        -0.58154
C         41.14966        52.10484        -0.61372
C         42.40868        54.32953        -0.31754
C         41.11021        54.97697        -0.38914
C         44.93160        45.73428        -0.56963
C         43.73833        46.41587        -0.48863
C         44.93284        48.54949        -0.51896
C         43.70408        47.83374        -0.44162
C         44.92541        49.98285        -0.48536
C         43.69778        50.68873        -0.49645
C         44.90078        52.82753        -0.30377
C         43.71377        52.12766        -0.41102
C         44.88061        54.25962         0.17585
C         43.57833        55.00464        -0.03283
C         44.81879        57.11212         0.30243
C         43.63713        56.42129         0.22599
C         47.45807        44.28370        -0.61495
C         47.42260        45.70414        -0.58348
C         46.17694        46.41955        -0.59250
C         47.41398        48.56859        -0.65684
C         46.17501        47.84494        -0.58247
C         47.38060        49.99432        -0.66224
C         46.17608        50.69098        -0.50688
C         47.36463        52.86131        -0.37415
C         46.17372        52.14665        -0.39759
C         47.36315        54.32828        -0.50500
C         46.06625        55.06377        -0.31572
C         47.29907        57.19998         0.02184
C         46.09387        56.50331         0.03661
C         47.31463        58.64221         0.17381
C         49.88095        44.27344        -0.31833
C         48.64069        43.59411        -0.50412
C         49.88226        45.70603        -0.35327
C         48.65735        46.42075        -0.50716
C         49.90368        48.55458        -0.54064
C         48.65424        47.85270        -0.60034
C         49.92191        50.01296        -0.86136
C         48.61774        50.79637        -1.03329
C         49.90493        52.96455        -0.52854
C         48.67137        52.11968        -0.22796
C         49.83712        54.39672        -0.52339
C         48.62693        55.08669        -0.41640
C         49.76760        57.23263        -0.05357
C         48.58177        56.52216        -0.19196
C         49.75173        58.63756         0.41141
C         48.46102        59.34051         0.32424
C         52.34824        41.44317        -0.07459
C         51.14959        42.13339        -0.15431
C         52.33417        44.27161         0.31311
C         51.08698        43.54264        -0.11149
C         52.32984        45.74383        -0.04002
C         51.12748        46.43277        -0.22927
C         52.34507        48.63264         0.01756
C         51.09779        47.87774        -0.29738
C         52.37546        50.12841        -0.10051
C         51.16333        50.80736        -0.64441
C         52.39323        52.95574        -0.50792
C         51.13523        52.29278        -0.56926
C         52.40162        54.41985        -0.71908
C         51.08971        55.16705        -0.75435
C         52.31250        57.33983        -0.06581
C         51.05284        56.70254        -0.65020
C         52.32692        58.66298         0.27620
C         51.05842        59.39673         0.53228
C         52.29792        61.51386         0.29912
C         51.11405        60.86473         0.42687
C         54.90487        39.97792         0.02217
C         54.88121        41.39450        -0.18869
C         53.60854        42.12971        -0.11737
C         54.82461        44.26140        -0.35814
C         53.59392        43.51986        -0.08413
C         54.88949        45.69856         0.00932
C         53.59953        46.46924         0.11797
C         54.82658        48.62037        -0.24205
C         53.64383        47.93713        -0.05329
C         54.83929        50.07349        -0.36593
C         53.66754        50.81834        -0.30207
C         54.84389        53.00883        -0.20296
C         53.62757        52.26957        -0.39253
C         54.87525        54.39870        -0.03939
C         53.67232        55.17078        -0.44713
C         54.74061        57.22184         0.65807
C         53.61516        56.63509        -0.16771
C         54.80858        58.71423         0.47864
C         53.58404        59.41084         0.39356
C         54.81825        61.53513         0.31976
C         53.57127        60.82376         0.33169
C         54.87896        62.95195         0.23060
C         57.35025        39.91032         0.02456
C         56.10135        39.28530         0.16026
C         57.40300        41.32740        -0.47512
C         56.09969        42.06308        -0.31068
C         57.39826        44.24066        -0.20154
C         56.14577        43.51133        -0.49882
C         57.35938        45.67806        -0.20754
C         56.14812        46.39799        -0.26139
C         57.39741        48.57812        -0.34606
C         56.08154        47.84702        -0.67026
C         57.41430        50.06350        -0.26740
C         56.12879        50.80153        -0.49116
C         57.28546        52.89704         0.49606
C         56.12900        52.28269        -0.27611
C         57.34042        54.40567         0.39901
C         56.07010        55.11266         0.31719
C         57.25320        57.24868         0.67521
C         56.05828        56.51736         0.47365
C         57.28070        58.65806         0.64684
C         56.04294        59.39269         0.50244
C         57.30011        61.51097         0.43271
C         56.05153        60.81616         0.40907
C         57.32028        62.92281         0.27886
C         56.08952        63.61592         0.19219
C         59.81779        37.09915         0.23509
C         58.61930        37.78904         0.23894
C         59.82745        39.92413         0.11482
C         58.59130        39.20246         0.14320
C         59.82533        41.38718         0.14262
C         58.63224        42.08992        -0.01948
C         59.80041        44.25709         0.36306
C         58.59285        43.53468         0.05148
C         59.74850        45.67413         0.46086
C         58.58039        46.37540         0.11388
C         59.80744        48.62187         0.58479
C         58.49723        47.81626         0.32554
C         59.82231        50.08443         0.35645
C         58.60976        50.78936         0.23988
C         59.81610        52.88675         0.47946
C         58.60840        52.19662         0.29979
C         59.83797        54.39362         0.38484
C         58.51145        55.06716         0.64589
C         59.76983        57.25853         0.96988
C         58.47563        56.49996         1.13310
C         59.78855        58.63465         0.89090
C         58.52895        59.37843         0.73579
C         59.76376        61.54699         0.84061
C         58.51928        60.77182         0.63584
C         59.77720        62.95774         0.40175
C         58.59659        63.62192         0.15408
C         59.81060        65.74161        -0.18004
C         58.64546        65.02988        -0.20500
C         62.40687        35.70124        -0.48299
C         62.30952        37.00622         0.18922
C         61.04070        37.79270         0.15060
C         62.34647        39.93946        -0.05974
C         61.04173        39.20258         0.13221
C         62.29681        41.40229         0.32806
C         61.08061        42.09273         0.34801
C         62.25078        44.24689         0.67009
C         61.05604        43.54931         0.49960
C         62.27050        45.67663         0.98730
C         60.95114        46.43356         0.89601
C         62.30412        48.48394         0.14783
C         61.02670        47.87733         0.65258
C         62.30713        50.01494         0.23896
C         61.04427        50.77364         0.43578
C         62.28515        52.92059         0.79657
C         61.04955        52.19249         0.52481
C         62.30790        54.28798         1.04593
C         61.01444        55.01294         1.11417
C         62.31321        57.21993         1.21060
C         61.01541        56.51348         1.24106
C         62.27456        58.66647         1.13924
C         61.06835        59.33210         1.00262
C         62.34306        61.53301         0.82859
C         61.06310        60.81575         1.06161
C         62.27088        63.04027         0.82887
C         61.09763        63.59954         0.02512
C         62.26831        65.81598         0.25440
C         61.07626        65.11682         0.09374
C         62.31915        67.25804         0.08736
C         64.87535        35.72318        -0.31811
C         63.60549        35.09157        -0.64353
C         64.88873        37.08446         0.08338
C         63.60784        37.72873         0.43558
C         64.83415        39.97312         0.52688
C         63.54800        39.22313         0.55464
C         64.76933        41.42863         0.30687
C         63.55749        42.09469         0.40310
C         64.77622        44.33093         0.63879
C         63.54176        43.51514         0.90833
C         64.80155        45.69884         0.93133
C         63.54597        46.44819         0.92770
C         64.77736        48.57552         0.87368
C         63.54479        47.81545         0.74228
C         64.81701        49.94550         0.79053
C         63.59323        50.73158         0.48165
C         64.80101        52.90769         1.17743
C         63.51283        52.13572         0.99476
C         64.75719        54.36881         1.18404
C         63.53826        55.04133         1.23663
C         64.78433        57.24727         1.39407
C         63.49861        56.50485         1.27698
C         64.81779        58.70104         1.17119
C         63.54072        59.45526         1.45280
C         64.80449        61.51273         0.61233
C         63.53335        60.86280         0.89175
C         64.77611        62.92839         0.04767
C         63.55059        63.72183         0.41561
C         64.81405        65.84211         0.42544
C         63.53627        65.08463         0.35034
C         64.78606        67.33553         0.27037
C         63.47172        67.96252         0.01785
C         67.31303        32.91292        -0.82993
C         66.16716        33.63561        -0.88974
C         67.34391        35.71805        -0.26261
C         66.10104        35.02132        -0.47493
C         67.32530        37.13704        -0.04028
C         66.11654        37.81593         0.16616
C         67.30287        39.99918         0.37460
C         66.12651        39.26893         0.37075
C         67.32414        41.44194         0.31520
C         66.04007        42.14538         0.12230
C         67.30599        44.33602         0.55264
C         66.03111        43.67182         0.28406
C         67.29862        45.71507         0.91548
C         66.03861        46.38743         1.04546
C         67.29320        48.56564         1.51398
C         65.99896        47.83602         1.29536
C         67.35040        50.00214         1.16583
C         66.10010        50.68821         0.80601
C         67.31696        52.90027         1.23591
C         66.09268        52.22169         0.85049
C         67.31216        54.38653         1.48293
C         66.06545        55.03559         0.84201
C         67.28021        57.25465         0.75998
C         66.08506        56.50754         1.17645
C         67.26602        58.63054         0.71388
C         66.00403        59.35981         0.90449
C         67.24319        61.46911         0.12958
C         65.98121        60.79512         0.63268
C         67.26462        62.92715         0.53521
C         66.04626        63.70283         0.31803
C         67.33915        65.80622         0.26860
C         66.09150        65.08522         0.32099
C         67.34729        67.33018         0.29132
C         66.04901        68.02801        -0.07633
C         67.31110        70.03126        -0.75264
C         66.07969        69.33339        -0.45923
C         70.08498        31.53654        -0.53215
C         69.83665        32.88060        -0.72181
C         68.55464        33.49563        -0.20735
C         69.84466        35.66582        -0.07380
C         68.55507        35.00007        -0.31233
C         69.86153        37.16991         0.13597
C         68.59830        37.93366        -0.19854
C         69.85326        40.04826         0.20193
C         68.60897        39.25792         0.56082
C         69.80642        41.46327         0.19641
C         68.52100        42.16275         0.28425
C         69.73521        44.34046         0.43389
C         68.51951        43.61944         0.38043
C         69.74647        45.71840         0.79311
C         68.53579        46.40055         1.06210
C         69.82557        48.57215         1.22367
C         68.60716        47.79043         1.67220
C         69.81967        49.98183         1.20514
C         68.54542        50.68628         1.23660
C         69.87250        52.93839         1.19720
C         68.53185        52.15279         1.36810
C         69.74926        54.36554         0.80526
C         68.55955        55.04808         0.90016
C         69.77339        57.19966         0.43721
C         68.47276        56.44821         0.30149
C         69.76888        58.61742         0.45631
C         68.52344        59.35881         0.50282
C         69.78361        61.47387         0.32991
C         68.53896        60.74597         0.41434
C         69.81758        62.90015         0.26586
C         68.58772        63.67194         0.52237
C         69.81843        65.76162        -0.01375
C         68.55753        65.12060         0.26165
C         69.81383        67.18077        -0.46159
C         68.52140        67.91963        -0.47918
C         69.72588        69.97725        -1.38786
C         68.50769        69.38483        -0.75559
C         69.54540        70.83750        -2.56689
C         72.28400        31.73091        -1.58734
C         71.29725        30.94651        -0.94292
C         72.09432        33.06942        -1.81081
C         70.83749        33.77696        -1.40783
C         72.23828        35.75785        -0.56639
C         71.06654        35.04899        -0.58839
C         72.27720        37.15687        -0.24320
C         71.12827        37.89446        -0.06073
C         72.23193        40.11957        -0.29480
C         71.07165        39.36304        -0.04017
C         72.19404        41.50862        -0.26713
C         71.00200        42.19473        -0.00532
C         72.22135        44.32261         0.60496
C         71.01325        43.70467        -0.05158
C         72.21236        45.63720         0.95379
C         71.00763        46.41639         0.92465
C         72.23432        48.58640         0.82935
C         71.03115        47.84853         1.02064
C         72.22600        49.96500         0.78603
C         71.02594        50.70813         0.93563
C         72.05829        52.83006         0.10801
C         71.02412        52.14624         0.74499
C         72.05325        54.23866        -0.02337
C         70.95354        55.01744         0.32117
C         72.19957        57.18911         0.25252
C         70.97525        56.47740         0.31295
C         72.20962        58.56770         0.26648
C         71.00664        59.31522         0.35172
C         72.22468        61.48296         0.15204
C         71.01370        60.75692         0.29163
C         72.23174        62.85350         0.01370
C         71.02401        63.59871         0.06701
C         72.23511        65.75670        -0.44284
C         71.00836        65.04846        -0.09607
C         72.30292        67.09275        -0.61438
C         71.11189        67.98377        -0.36701
C         72.01643        69.42275        -2.36013
C         71.05613        69.23549        -1.26445
C         71.81692        70.36741        -3.31748
C         70.57492        71.08631        -3.41808
O         64.85385        66.72266         1.62212
O         54.34057        46.00563         1.35306
O         50.39266        58.87035         1.74287
O         61.48727        45.99387         2.20154
O         56.94907        52.67892         1.85964
O         56.31519        51.74063        -1.62177
O         64.11616        52.27616         2.31770
O         64.08046        39.68527         1.81250
O         60.81072        55.60052         2.42363
O         69.37592        52.62011         2.51697
O         65.62028        56.80176         2.52313
O         66.40795        48.28631         2.66197
O         69.87107        36.28403         1.27735
O         70.78589        70.44526        -0.47832
O         57.85181        49.33365        -1.50779
O         51.76056        54.76181        -1.99855
O         62.91604        37.03240         1.53235
O         58.83193        48.26340         1.65420
O         60.31452        61.34875         2.23200
O         67.94003        63.23814         1.78119
O         41.82648        52.45528        -1.86843
O         69.01114        67.24898        -1.69882
O         63.08824        50.59408        -0.88822
O         53.98856        56.16820        -1.49668
O         55.40337        43.99928        -1.67807
O         66.19110        51.50902        -0.43088
O         52.19628        49.51016         1.21038
O         66.01215        43.01657        -1.05544
O         50.83617        50.29137        -1.99443
O         46.50910        54.77603        -1.66054
O         67.58607        67.69507         1.68416
H         66.79748        67.38642         2.18929
O         58.26645        56.40917         2.59143
H         59.05960        55.94477         2.95928
O         62.62754        39.88810        -1.50048
H         61.90775        40.36649        -1.96484
O         67.14195        61.48974        -1.34631
H         67.20716        60.56234        -1.66085
O         63.53307        59.63202         2.90817
H         62.75561        60.18394         3.14106
O         68.29872        56.28363        -1.15551
H         69.00990        55.68452        -1.46804
O         71.11469        44.05294        -1.48217
H         71.11083        45.03187        -1.54460
O         60.14447        54.69426        -1.02785
H         59.47385        54.24420        -1.58546
O         48.45360        51.11061        -2.42546
H         49.34507        51.04836        -2.84516
O         52.31221        44.24387         1.79568
H         53.05136        44.83557         2.08657
O         70.19931        34.28787        -2.64272
H         70.12856        33.53333        -3.26585
O         68.50090        33.18519         1.23262
H         67.75192        33.68586         1.62059
O         63.57665        43.33963         2.38544
H         62.76713        42.84911         2.64645
O         62.06947        63.41865         2.21977
H         61.34013        62.85011         2.57441
O         68.69439        38.93208         1.97200
H         68.68037        39.76536         2.48649
O         68.82074        47.57640         3.09893
H         67.92617        47.56683         3.51656
O         48.78656        51.70965         1.16897
H         48.72906        52.50723         1.73566
O         62.36021        48.14555        -1.27662
H         62.81298        48.90168        -1.72292
O         39.18296        52.56941        -1.88317
H         39.90428        52.67040        -2.54532
O         68.68359        38.27270        -1.61155
H         68.64234        37.44466        -2.13480
O         45.07653        54.18399         1.63075
H         44.29839        53.73289         2.02051
O         55.96493        47.79902        -2.12070
H         56.55069        48.51322        -2.47811
O         67.28696        54.62995         2.90620
H         68.03597        54.12910         3.30165
O         61.31286        63.23799        -1.37271
H         60.64292        63.70982        -1.91060
O         57.58193        41.21063        -1.95350
H         56.71882        40.93422        -2.33024
O         71.21230        68.41922         1.00895
H         71.01183        69.38713         1.01868
O         51.01377        57.20609        -2.02151
H         51.55283        56.57319        -2.55677
O         54.35528        56.96628         2.04826
H         55.13047        57.15842         2.61859
O         66.22360        54.83613        -0.58496
H         65.55110        55.36372        -1.06270
O         64.68812        62.76621        -1.41022
H         65.52778        62.32153        -1.69254
H         38.00445        49.13633         1.75157
H         36.18645        50.48965         2.73588
H         37.73006        54.01618         0.79190
H         36.05621        52.94534         2.27176
H         39.19221        48.04730         0.59736
H         39.01202        54.89508        -0.55016
H         41.21584        46.79189         0.07379
H         41.08191        56.07596        -0.35916
H         44.90427        44.63760        -0.59778
H         42.80335        45.84099        -0.46482
H         44.77400        58.18478         0.53506
H         42.69879        56.97823         0.35790
H         46.52843        43.71077        -0.72329
H         46.36098        59.18645         0.15505
H         48.61250        42.49726        -0.52036
H         48.42981        60.42923         0.46789
H         52.31841        40.34632        -0.10257
H         50.23075        41.54603        -0.28775
H         52.28755        62.60976         0.22327
H         50.18001        61.44166         0.47565
H         53.96662        39.42606         0.15755
H         53.95545        63.54271         0.17491
H         56.04859        38.21871         0.41938
H         56.08153        64.71056         0.10974
H         59.81608        36.00221         0.29481
H         57.68132        37.22065         0.28225
H         59.76222        66.82553        -0.35601
H         57.71113        65.55771        -0.43554
H         61.49151        35.22125        -0.85844
H         61.37419        67.80019        -0.05571
H         63.62428        34.10031        -1.11649
H         63.42761        69.04354        -0.17678
H         67.32325        31.86199        -1.15504
H         65.25782        33.15000        -1.27134
H         67.24626        71.09101        -1.03747
H         65.14495        69.89386        -0.60309
H         69.33197        30.91925        -0.02077
H         68.54889        71.25712        -2.76811
H         73.21583        31.25025        -1.91935
H         71.47918        29.87957        -0.75939
H         72.85159        33.64662        -2.36098
H         73.16687        35.29682        -0.93387
H         73.25335        37.65677        -0.31655
H         73.18219        39.61694        -0.51875
H         73.11273        42.07043        -0.48343
H         73.15743        43.75028         0.66828
H         73.13939        46.10581         1.31543
H         73.18419        48.05297         0.68819
H         73.17450        50.49611         0.62819
H         72.93254        52.27955        -0.26524
H         72.95257        54.71775        -0.43417
H         73.15079        56.64300         0.19528
H         73.17687        59.08256         0.20679
H         73.18606        60.95397         0.13586
H         73.19631        63.36186        -0.10820
H         73.15700        65.17310        -0.57097
H         73.27992        67.56010        -0.80632
H         72.89979        68.77097        -2.41578
H         72.56814        70.51180        -4.10697
H         70.42764        71.75673        -4.27676
