         334
 CSIRO Nanostructure Databank - Neutral Graphene Oxide Data Set
C         30.35048        57.15352         0.90128
C         30.28487        58.52273         0.77038
C         29.09284        59.27457         0.96519
C         30.32153        61.38601         1.12089
C         29.13894        60.68672         1.04316
C         32.70608        52.88085        -0.34813
C         32.73796        54.33792         0.07089
C         31.60952        54.98266         0.45974
C         32.81775        57.18628         0.36892
C         31.65712        56.40538         0.95224
C         32.79429        58.55826         0.41002
C         31.50175        59.31633         0.34295
C         32.83124        61.39527         0.75857
C         31.62808        60.65054         1.22455
C         35.29832        48.63573         0.30749
C         35.22259        50.02583         0.25218
C         34.01410        50.76692         0.02319
C         35.23548        52.90294        -0.06490
C         34.00267        52.14557        -0.06929
C         35.23366        54.32566        -0.21925
C         33.99491        55.06792        -0.09440
C         35.19258        57.21230        -0.47914
C         33.99380        56.46177        -0.05596
C         35.25134        58.69465        -0.28809
C         34.00516        59.38093         0.16937
C         35.37623        61.47121         0.41783
C         34.16982        60.72495         0.94248
C         37.80871        44.30964         0.26702
C         37.79456        45.69514         0.29672
C         36.46147        46.40779         0.41249
C         37.76326        48.57937         0.37532
C         36.53290        47.92003         0.37990
C         37.77601        50.05106         0.49084
C         36.44914        50.80693         0.45397
C         37.70424        52.91775        -0.02522
C         36.46799        52.23338         0.09546
C         37.70760        54.32489        -0.19685
C         36.46898        55.00812        -0.26444
C         37.73926        57.18501        -0.05464
C         36.49124        56.46107        -0.51049
C         37.74695        58.66905        -0.31791
C         36.54304        59.37613        -0.15931
C         37.79444        61.48321        -0.17339
C         36.54215        60.80420         0.00900
C         40.29543        40.01274         0.24122
C         40.26411        41.42262         0.19598
C         39.04706        42.15730         0.21377
C         40.26302        44.29894         0.15839
C         39.02918        43.56813         0.19837
C         40.24850        45.70566         0.24305
C         39.02798        46.42102         0.28054
C         40.23529        48.58154         0.20349
C         39.02243        47.87241         0.29223
C         40.24138        50.05849         0.16284
C         38.97262        50.79825         0.09173
C         40.15110        52.89868        -0.45997
C         38.95362        52.18194        -0.09999
C         40.17527        54.29337        -0.54248
C         38.95991        55.04488        -0.36295
C         40.19931        57.14824        -0.68926
C         38.99001        56.44387        -0.43946
C         40.19838        58.63781        -0.96957
C         38.95368        59.36178        -0.50854
C         40.24549        61.50039        -0.79978
C         38.95564        60.78350        -0.47398
C         42.79089        35.73471         0.39211
C         42.76372        37.14726         0.30870
C         41.54521        37.87181         0.30595
C         42.75556        39.99718         0.08786
C         41.51967        39.28574         0.21183
C         42.74094        41.43038         0.01529
C         41.50811        42.14537         0.10458
C         42.73060        44.25701        -0.12169
C         41.51153        43.56465         0.05257
C         42.67593        45.73951        -0.39710
C         41.56829        46.42810         0.41770
C         42.68253        48.58905        -0.14485
C         41.49503        47.90958         0.11348
C         42.73265        49.99857        -0.40051
C         41.49081        50.78517        -0.21667
C         42.63281        52.87634        -1.05672
C         41.32145        52.09523        -0.97434
C         42.64104        54.33910        -0.87362
C         41.41559        55.02167        -0.74518
C         42.67047        57.20723        -1.10899
C         41.39936        56.44928        -0.79369
C         42.65014        58.59306        -0.48588
C         41.47110        59.30348        -0.48632
C         42.62548        61.40770        -0.00403
C         41.48160        60.75405        -0.33641
C         45.25633        32.91194         0.44334
C         44.04125        33.59666         0.45787
C         45.25015        35.72761         0.29527
C         44.01034        35.01656         0.38313
C         45.24732        37.15093         0.21973
C         44.00976        37.86126         0.22273
C         45.23523        39.97349         0.00925
C         44.00458        39.28354         0.09925
C         45.24120        41.42201        -0.38336
C         43.95185        42.14776        -0.11875
C         45.22486        44.28607        -0.20532
C         43.95958        43.55886        -0.17096
C         45.20771        45.72077        -0.19353
C         43.99528        46.41641        -0.20499
C         45.18499        48.51365        -0.67970
C         44.00057        47.89217         0.06719
C         45.20475        50.01376        -0.58111
C         43.92593        50.68369        -0.57120
C         45.13651        52.91359        -0.53365
C         43.92614        52.13988        -0.85042
C         45.13108        54.27820        -0.61465
C         43.89697        55.03010        -0.81192
C         45.14461        57.15614        -0.56040
C         43.92693        56.43277        -0.79181
C         45.09667        58.60116        -0.38465
C         43.90202        59.25844        -0.21155
C         45.15426        61.40804         0.23656
C         43.86165        60.64378         0.40154
C         46.46829        33.59688         0.35714
C         47.71151        35.73342         0.19953
C         46.49372        35.01707         0.28331
C         47.73554        37.14764         0.14101
C         46.48412        37.85684         0.15232
C         47.72180        39.98182         0.10442
C         46.47909        39.28195         0.08898
C         47.72730        41.43438         0.30673
C         46.42261        42.17182         0.18250
C         47.69251        44.32073         0.05413
C         46.45391        43.62882        -0.03719
C         47.69234        45.75122         0.00294
C         46.46301        46.41878        -0.07749
C         47.71452        48.63385        -0.10000
C         46.42984        47.88594        -0.08244
C         47.70602        50.01248        -0.71699
C         46.37925        50.71194        -0.50630
C         47.63275        52.88208        -0.14662
C         46.32935        52.13630        -0.03204
C         47.59391        54.25468        -0.03912
C         46.44942        55.01986        -0.66947
C         47.54931        57.22468         0.00717
C         46.35664        56.48868        -0.34465
C         47.57087        58.59741         0.03775
C         46.39369        59.35982        -0.51325
C         47.61571        61.49144        -0.05414
C         46.34422        60.79549        -0.02909
C         48.95246        37.87372         0.06450
C         50.18080        40.04872         0.07261
C         48.96724        39.29119         0.06930
C         50.20377        41.46596         0.09414
C         48.97337        42.19727         0.17956
C         50.18138        44.33714         0.07582
C         48.94439        43.60491         0.12594
C         50.19425        45.75819         0.02524
C         48.95191        46.48528        -0.00178
C         50.20460        48.62395        -0.16126
C         48.98017        47.87996        -0.10631
C         50.17653        50.04952        -0.20455
C         48.93610        50.77947        -0.29069
C         50.13899        52.97271        -0.18828
C         48.87552        52.15513        -0.12402
C         50.05103        54.20593         0.72809
C         48.76265        54.98325         0.47902
C         50.06566        57.15327         0.29029
C         48.75029        56.47002         0.46947
C         50.06856        58.63350         0.22932
C         48.77954        59.36774         0.53704
C         50.08615        61.44579        -0.07617
C         48.82143        60.80735         0.05646
C         51.41810        42.20647         0.05496
C         52.64328        44.35922         0.06925
C         51.41899        43.61111         0.06670
C         52.65991        45.73786         0.06616
C         51.42964        46.48027         0.01436
C         52.68252        48.63697        -0.00580
C         51.44380        47.90886        -0.05324
C         52.68015        50.06802        -0.01851
C         51.41231        50.79007        -0.06417
C         52.61114        52.97086         0.14261
C         51.37899        52.16909         0.07375
C         52.59557        54.28784         0.92397
C         51.31708        55.05561         0.66201
C         52.55736        57.21654         0.91428
C         51.32084        56.40362         0.55439
C         52.53422        58.64291         0.39137
C         51.36851        59.34500         0.29032
C         52.55842        61.47641        -0.02972
C         51.32830        60.78322         0.02789
C         53.99777        46.44128         0.13180
C         55.11937        48.66273         0.17412
C         53.93142        47.95159         0.08547
C         55.13991        50.08746         0.18163
C         53.89693        50.77476         0.04201
C         55.13760        52.96005         0.47246
C         53.91946        52.24667         0.04097
C         55.09534        54.33258         0.68691
C         53.86876        55.07433         0.70611
C         55.07671        57.21415         0.63497
C         53.85762        56.47318         0.68119
C         55.07283        58.63308         0.41020
C         53.80922        59.28717        -0.09579
C         55.00902        61.47909         0.07406
C         53.79588        60.79685         0.03891
C         56.35096        50.81792         0.32244
C         57.60207        52.94162         0.56428
C         56.38235        52.22018         0.48110
C         57.62518        54.34322         0.71290
C         56.34912        55.05365         1.10091
C         57.53128        57.21850         0.74009
C         56.33701        56.52521         0.75548
C         57.52163        58.71327         0.92690
C         56.24791        59.36284         0.45185
C         57.47369        61.47092         0.11713
C         56.25757        60.79154         0.20588
C         58.80589        55.08484         0.64929
C         59.98446        57.24657         0.56654
C         58.80515        56.51829         0.69630
C         59.98288        58.67482         0.38150
C         58.76793        59.39512         0.43854
C         59.94458        61.44576        -0.16056
C         58.73346        60.77912         0.14683
C         61.17585        59.36981         0.06683
C         61.14808        60.74150        -0.18670
O         37.14008        50.54085         1.72459
O         35.83267        56.82345        -1.75262
O         34.35142        59.46492        -1.23284
O         46.93855        48.53655         1.13541
O         46.87586        41.79073         1.49975
O         43.42206        52.44694        -2.22651
O         48.48181        55.77169         1.72727
O         53.31822        52.94802        -1.14486
O         50.03558        57.85128        -1.01919
O         41.11189        50.74777         1.18981
O         34.44015        60.43389         2.32427
H         33.56797        60.32294         2.77870
O         57.52994        58.89997         2.40250
H         56.68621        58.53127         2.74319
O         43.72053        60.41100         1.85427
H         44.45879        59.82775         2.13147
O         40.22031        58.76672        -2.43804
H         40.17320        59.73913        -2.63363
O         31.97989        56.30072         2.39174
H         32.02616        57.21536         2.74564
O         41.96129        46.30355         1.82158
H         41.23271        46.66334         2.37099
O         47.82961        49.78937        -2.16311
H         48.02092        50.65469        -2.58508
O         56.33029        55.02798         2.57784
H         57.18394        55.40346         2.88343
O         31.77763        60.15469         2.58940
H         31.25847        60.73741         3.18192
O         40.31972        61.58429        -2.24677
H         41.18601        61.97659        -2.48362
O         46.62394        59.44492        -1.96456
H         47.53218        59.79202        -2.09684
O         40.95067        51.71455        -2.33057
H         41.77046        51.78560        -2.87648
O         46.11700        52.03085         1.42744
H         46.41846        51.14396         1.72366
O         52.47291        57.35882         2.37547
H         52.61154        56.46659         2.76461
O         32.44872        52.81700        -1.76847
H         33.15096        53.32436        -2.22605
O         45.44883        41.45862        -1.84465
H         44.68612        41.00531        -2.26263
O         35.55796        45.93098        -0.59945
H         35.94470        46.13685        -1.47499
O         37.65436        57.07620         1.41188
H         38.46867        57.46606         1.79454
O         42.68135        57.42649        -2.55778
H         41.82565        57.87857        -2.78064
O         31.31398        59.68967        -1.02484
H         32.19128        59.74347        -1.46492
O         46.80370        55.00323        -2.10810
H         46.13920        55.55024        -2.58115
O         52.60977        53.92664         2.33698
H         51.69072        53.62291         2.55901
O         42.29837        45.91293        -1.80123
H         43.08761        45.72937        -2.35322
O         44.26461        48.03184         1.49377
H         43.57810        47.49675         1.96094
O         53.81846        59.02007        -1.54690
H         52.98476        59.38223        -1.91693
O         45.10219        48.12755        -2.07057
H         45.83512        48.57965        -2.54513
O         48.69416        59.42430         1.99217
H         47.97915        60.05131         2.22908
O         54.86011        45.95803        -0.91532
H         54.46476        46.21046        -1.77473
O         50.25452        53.46304        -1.56092
H         51.18932        53.37115        -1.84972
O         49.96212        53.68161         2.08298
H         49.47181        54.35859         2.60830
H         29.45566        56.61320         1.25075
H         28.12856        58.75403         1.05395
H         30.32167        62.48496         1.07982
H         28.18858        61.24174         1.05270
H         31.85404        52.35684         0.15188
H         30.65749        54.43507         0.53662
H         32.69739        61.87110        -0.23040
H         34.37480        48.04445         0.21604
H         33.06683        50.21286        -0.06356
H         35.47991        62.51969         0.74155
H         36.85484        43.76253         0.30011
H         35.99816        46.11265         1.39582
H         37.82294        62.58045        -0.09391
H         39.34906        39.45637         0.31550
H         38.09347        41.60983         0.25674
H         40.23600        62.54306        -0.37689
H         41.84199        35.18176         0.45898
H         40.59613        37.32164         0.38838
H         42.64336        62.50791         0.04814
H         45.25886        31.81414         0.50118
H         43.09516        33.04091         0.52651
H         45.14959        62.46946         0.53414
H         47.41678        33.04104         0.34804
H         48.66117        35.17792         0.18552
H         47.62040        62.58639        -0.17636
H         49.90452        37.32351         0.04496
H         51.13750        39.50600         0.04549
H         50.09419        62.52536        -0.29532
H         52.37599        41.66650         0.02012
H         53.59709        43.81114         0.08304
H         52.55488        62.57621        -0.08043
H         54.49719        46.14619         1.09566
H         56.06876        48.11373         0.25827
H         55.01546        62.57906         0.02560
H         57.29975        50.26118         0.34702
H         58.55135        52.39973         0.43258
H         57.47180        62.55447        -0.07541
H         59.76272        54.56580         0.48345
H         60.94340        56.71065         0.50052
H         59.92834        62.52251        -0.38203
H         62.12610        58.81868         0.02074
H         62.08249        61.26963        -0.42363
