         236
 CSIRO Nanostructure Databank - Neutral Graphene Oxide Data Set
C        -10.95383         0.61818        -0.97242
C         -9.64004         1.38144        -1.00443
C         -8.64425         0.70662        -0.05499
C         -7.52812         1.49086         0.56180
C         -6.36906         0.79571         1.29189
C         -4.99446         1.48857         1.13213
C         -3.68801         0.72810         1.08630
C         -2.44297         1.48127         0.76604
C         -1.25726         0.78834         0.64089
C          0.04675         1.47253         0.99506
C          1.26552         0.82638         0.43910
C          2.51846         1.49131         0.79667
C          3.80907         0.73792         0.73061
C          5.13649         1.43325         0.63013
C          6.27419         0.72271         0.01746
C          7.37028         1.54718        -0.61082
C          8.69423         0.78865        -0.75348
C          9.97033         1.51356        -0.54178
C         11.18053         0.71645        -0.55864
C         -9.87262         2.84694        -0.59069
C         -8.57611         3.58543        -0.32422
C         -7.43008         2.92821         0.19334
C         -6.22107         3.63448         0.35974
C         -4.92619         2.84891         0.43177
C         -3.67441         3.62681         0.79762
C         -2.48765         2.93923         0.84335
C         -1.20830         3.70389         0.74159
C          0.07823         2.96622         0.71648
C          1.37567         3.67907         0.92653
C          2.55596         2.96488         0.90552
C          3.85959         3.65745         0.98642
C          5.15809         2.92588         0.75437
C          6.35104         3.67252         0.26581
C          7.50077         2.96388        -0.08673
C          8.74497         3.65316        -0.24944
C          9.96835         2.87833        -0.38473
C         -8.51315         4.94143        -0.63095
C         -7.33747         5.68836        -0.39587
C         -6.18798         5.01925         0.10044
C         -4.99397         5.82549         0.42846
C         -3.69974         5.11764         0.83467
C         -2.44649         5.87507         0.68692
C         -1.21887         5.14785         1.20361
C          0.10101         5.88529         0.96343
C          1.37241         5.12109         0.81015
C          2.54089         5.79045         0.49589
C          3.84949         5.15369         0.68692
C          5.10342         5.82093         0.24202
C          6.33673         5.09942         0.20955
C          7.55590         5.79580        -0.07709
C          8.76265         5.05024        -0.19197
C         -7.27782         7.08590        -0.71089
C         -6.09599         7.81010        -0.62126
C         -4.89736         7.19393        -0.10703
C         -3.68292         7.88005        -0.10166
C         -2.44669         7.22455         0.30695
C         -1.21859         7.95656         0.16696
C          0.06434         7.32437         0.50457
C          1.28616         7.93367        -0.03428
C          2.50075         7.13490        -0.10647
C          3.80902         7.84462        -0.42256
C          5.08724         7.17162        -0.10778
C          6.30645         7.89288        -0.30200
C          7.52247         7.20765        -0.24462
C         -6.03668         9.19350        -1.02675
C         -4.86215         9.88053        -0.99496
C         -3.63393         9.24570        -0.57983
C         -2.42694         9.92007        -0.67648
C         -1.18866         9.27813        -0.35185
C          0.04350         9.94872        -0.57013
C          1.28876         9.27126        -0.46660
C          2.54893         9.94676        -0.70232
C          3.76604         9.30935        -0.58092
C          5.04116         9.98888        -0.65687
C          6.22711         9.32096        -0.55565
C        -11.01693        -0.70406        -0.75019
C         -9.79595        -1.51897        -0.55223
C         -8.51219        -0.77522        -0.18944
C         -7.43304        -1.50864         0.49746
C         -6.28338        -0.75054         1.07904
C         -4.95513        -1.48145         1.05360
C         -3.67061        -0.74587         0.90272
C         -2.52749        -1.37034         0.45709
C         -1.25360        -0.65263         0.43218
C         -0.05681        -1.34046         0.25343
C          1.23571        -0.60469        -0.00589
C          2.45690        -1.36098         0.49111
C          3.73277        -0.64654         0.17836
C          4.97923        -1.41225        -0.02913
C          6.27275        -0.67808        -0.08279
C          7.44431        -1.39995        -0.35411
C          8.70455        -0.71448        -0.65316
C          9.98232        -1.45473        -0.48806
C         11.18940        -0.65034        -0.54972
C         -9.85544        -2.91958        -0.17754
C         -8.67890        -3.60549         0.12274
C         -7.44940        -2.88184         0.44356
C         -6.25935        -3.74456         0.85201
C         -4.93011        -2.97439         0.82362
C         -3.69545        -3.62533         0.29886
C         -2.57996        -2.73461        -0.23367
C         -1.24360        -3.49325        -0.25193
C         -0.00084        -2.79054         0.18048
C          1.16170        -3.52270         0.29703
C          2.46044        -2.84717         0.52735
C          3.74095        -3.56125         0.24881
C          4.91152        -2.89067         0.04891
C          6.17036        -3.59666        -0.30598
C          7.45614        -2.85425        -0.13465
C          8.75501        -3.61289        -0.14893
C          9.99464        -2.81978        -0.36923
C         -8.68704        -5.02959         0.18779
C         -7.48557        -5.76418         0.04189
C         -6.23484        -4.93721        -0.14293
C         -4.94820        -5.73013        -0.15001
C         -3.76347        -5.03848        -0.15949
C         -2.53543        -5.73927        -0.69974
C         -1.22822        -4.98892        -0.43671
C         -0.03618        -5.76322        -0.02043
C          1.08927        -4.99823         0.64300
C          2.44487        -5.73700         0.58017
C          3.67897        -5.05689        -0.01520
C          5.02108        -5.74703         0.41894
C          6.21044        -5.07401        -0.24977
C          7.52253        -5.78570        -0.33055
C          8.69608        -5.07943        -0.39406
C         -7.47425        -7.13244        -0.09166
C         -6.26544        -7.91275        -0.51600
C         -4.95938        -7.16268        -0.35930
C         -3.77507        -7.88383        -0.36281
C         -2.51399        -7.20399        -0.32302
C         -1.30456        -7.88415        -0.20674
C         -0.05717        -7.15474        -0.00819
C          1.16122        -7.92135         0.15116
C          2.43666        -7.23082         0.44658
C          3.71743        -7.98417         0.16007
C          5.02611        -7.25270         0.15193
C          6.21061        -7.87930        -0.49793
C          7.40837        -7.20253        -0.60834
C         -6.19754        -9.26207         0.16206
C         -5.05458        -9.95326         0.17068
C         -3.82445        -9.39645        -0.51458
C         -2.55813       -10.10559        -0.02609
C         -1.27626        -9.32788        -0.20712
C         -0.07406        -9.98428        -0.29353
C          1.17744        -9.27635        -0.19314
C          2.41283        -9.95927        -0.50556
C          3.63245        -9.32329        -0.46532
C          4.86721        -9.92373        -0.90323
C          6.06391        -9.25477        -0.91129
O          4.60961        -8.01362         1.33415
O          5.20207        -5.52637         1.82310
H          4.71614        -6.24874         2.28934
O          5.99074        -4.39236        -1.54649
O          8.11317        -3.23117         1.14185
O          4.16757        -0.86329        -1.18455
O          1.38747        -0.61527        -1.47286
H          0.69879        -0.02874        -1.85143
O         -1.39798         5.05879         2.63944
H         -1.13076         5.92850         3.01616
O          3.49481        -5.24957        -1.43757
H          4.25160        -4.80173        -1.89643
O         -3.94486        -9.66473        -1.93365
H         -4.78986        -9.24571        -2.23212
O          8.69586        -0.01093        -1.98599
O          3.08045         7.12526        -1.48142
O          0.12800         1.35871         2.46187
H          0.95699         0.88873         2.70322
O          3.18592         0.82335         2.03777
O         -4.72680         2.44402        -0.97862
H         -4.69945         3.25263        -1.53344
O          3.97509         4.62525         2.06277
O         -0.95255        -4.06898        -1.58812
O         -9.10349         1.37615        -2.34015
H         -8.95013         0.43063        -2.58044
O        -10.71496         2.90037         0.56508
H        -10.23087         2.44354         1.29387
O          0.23324         6.95420         1.96333
O         -6.71762         0.97957         2.67488
H         -5.96323         0.63744         3.20716
O         -0.54905         3.41963        -0.54063
O          6.86600         1.77273        -1.97499
H          7.20860         1.02057        -2.51817
O          2.59529        -6.55637         1.76732
O         -6.46610        -4.26091         2.17414
H         -6.17035        -3.57369         2.81023
O         -2.73513        -5.77871        -2.15459
H         -2.08755        -5.14953        -2.55143
O         -2.94871        -2.43305        -1.60807
H         -2.26120        -2.83450        -2.19072
O         -4.60901         5.69004         1.84146
O         -6.33337        -4.37686        -1.48705
H         -5.43775        -4.11153        -1.78730
O         -6.41678        -8.17818        -1.96202
H         -6.46516        -7.30650        -2.41137
O          0.67649        -4.96292         2.04486
H          1.17800        -5.67815         2.50858
O         -3.92594        -3.53880         1.74525
O         -2.70591       -10.33600         1.38626
H         -1.85573       -10.67160         1.73730
O         -8.73275        -1.22446        -1.56228
O         -5.70811        -1.30505         2.30858
O          5.52130         2.08120         1.90272
O          2.43061        -2.01121         1.77256
O         -4.22950         1.31397         2.34376
O         -8.78091         1.18283         1.30516
H         12.15448        -1.17900        -0.53461
H         12.13996         1.25570        -0.54563
H         10.92692         3.41346        -0.29971
H          9.71366         5.58753        -0.32440
H          8.46436         7.75338        -0.40402
H          7.17201         9.87568        -0.65338
H          5.03895        11.07568        -0.82786
H          2.52292        11.03016        -0.89438
H          0.02622        10.99396        -0.91138
H         -2.40737        10.95142        -1.05828
H         -4.82172        10.93102        -1.31802
H         -6.96054         9.67819        -1.37405
H         -8.18814         7.57915        -1.08197
H         -9.39167         5.44315        -1.06217
H        -10.41820         3.36516        -1.41878
H        -11.87895         1.19166        -1.13218
H        -11.98716        -1.22312        -0.72043
H        -10.81548        -3.45442        -0.21920
H         -9.65166        -5.55950         0.16311
H         -8.42278        -7.68558         0.00095
H         -7.11302        -9.66281         0.62323
H         -4.99705       -10.94576         0.64092
H         -2.47289       -11.09802        -0.55414
H         -0.04882       -11.08011        -0.39531
H          2.34763       -10.98909        -0.88817
H          4.82916       -10.95986        -1.27142
H          6.96032        -9.76902        -1.28950
H          8.29589        -7.73775        -0.98049
H          9.64172        -5.61050        -0.58412
H         10.95935        -3.35033        -0.33268
