         324
 CSIRO Nanostructure Databank - Neutral Graphene Oxide Data Set
C         30.60235        56.97546        -1.55590
C         30.58803        58.36026        -1.78324
C         29.50564        59.03155        -2.38643
C         30.76587        61.11711        -2.65687
C         29.62056        60.36746        -2.83052
C         32.74817        52.96417         0.26450
C         32.84746        54.27349        -0.17090
C         31.70536        54.95645        -0.69521
C         32.97997        57.05160        -0.82370
C         31.74586        56.31635        -1.01849
C         33.01122        58.44666        -1.03130
C         31.75336        59.14220        -1.33378
C         33.17539        61.23691        -1.81108
C         31.84917        60.64685        -1.80338
C         35.39815        48.77106         0.06266
C         35.27787        50.06261         0.47774
C         34.01714        50.83073         0.13222
C         35.20210        52.96247         0.79562
C         33.89356        52.20915         0.86167
C         35.28029        54.29539         0.37937
C         34.10536        54.98764        -0.06881
C         35.39337        57.07814        -0.24805
C         34.15893        56.36398        -0.38305
C         35.41019        58.50578        -0.49341
C         34.21494        59.18237        -0.88272
C         35.48838        61.30189        -1.00732
C         34.27327        60.59497        -1.21217
C         37.85299        44.48483        -0.10043
C         37.79735        45.83071         0.28478
C         36.62116        46.62291         0.07218
C         37.74554        48.66991         0.83791
C         36.59402        47.99568         0.32070
C         37.73279        50.04485         1.14492
C         36.42366        50.72536         1.13195
C         37.70546        52.95127         1.20610
C         36.40588        52.26339         1.24420
C         37.73607        54.27990         0.81780
C         36.54655        54.99906         0.42016
C         37.88646        57.11967        -0.05961
C         36.57501        56.37192         0.10278
C         37.74018        58.57598         0.33219
C         36.57797        59.26251        -0.24993
C         37.84840        61.39416        -0.25715
C         36.62342        60.67170        -0.46381
C         40.35273        40.22467        -0.85080
C         40.17738        41.50594        -0.17687
C         39.08170        42.40164        -0.47007
C         40.23067        44.35786         0.55440
C         39.03844        43.71238         0.04712
C         40.17440        45.73250         0.90789
C         38.97573        46.44584         0.82215
C         40.12575        48.57602         1.74136
C         38.90408        47.86029         1.24241
C         40.15631        50.05970         1.66197
C         38.90572        50.76351         1.51849
C         40.13421        52.90760         1.70321
C         38.93922        52.21856         1.51100
C         40.09224        54.41693         1.86061
C         39.03854        54.98465         0.90512
C         40.16250        57.22896         1.31284
C         39.09839        56.42605         0.55725
C         40.25168        58.64341         0.80299
C         38.98431        59.37142         0.62590
C         40.28754        61.41235         0.12205
C         39.01807        60.78164         0.18689
C         42.93251        36.33336        -2.36505
C         42.85818        37.63502        -1.86538
C         41.63092        38.26628        -1.56928
C         42.80745        40.08008        -0.33823
C         41.55274        39.52638        -0.91974
C         42.78467        41.47928         0.27432
C         41.48772        42.20204         0.39893
C         42.71692        44.32603         0.68282
C         41.49651        43.66897         0.50887
C         42.69960        45.64865         1.41983
C         41.46688        46.50726         1.05107
C         42.67208        48.56489         1.65365
C         41.42119        47.78043         1.94508
C         42.61847        50.00850         1.50809
C         41.35898        50.73544         1.75097
C         42.69044        52.91303         1.80699
C         41.38837        52.19226         2.12893
C         42.69774        54.40340         2.06569
C         41.42965        55.12087         1.64434
C         42.70975        57.17684         1.10571
C         41.46503        56.45594         1.34300
C         42.69058        58.51850         0.74510
C         41.45527        59.27416         0.61982
C         42.73130        61.36798         0.17302
C         41.48774        60.70404         0.29814
C         45.38885        33.57643        -2.98653
C         44.18957        34.27373        -2.91300
C         45.41858        36.29019        -2.29200
C         44.17556        35.64318        -2.54962
C         45.43389        37.72851        -1.96347
C         44.10787        38.41647        -1.70916
C         45.28679        40.23867        -0.48746
C         44.10702        39.60811        -0.84604
C         45.26385        41.59017         0.06995
C         44.02970        42.25744         0.25409
C         45.20249        44.36956         0.63413
C         43.98621        43.65276         0.52560
C         45.20986        45.87790         0.72115
C         43.93886        46.48869         1.24213
C         45.14095        48.63713         1.57672
C         43.89832        47.88092         1.47478
C         45.17236        50.01833         1.64915
C         43.92271        50.77873         1.42901
C         45.16884        52.92434         1.71344
C         43.89550        52.24311         1.68909
C         45.18031        54.36292         1.64599
C         43.95735        55.08136         1.58750
C         45.21423        57.11738         1.10123
C         43.96698        56.44625         1.24603
C         45.23755        58.48389         0.55320
C         43.93368        59.20262         0.34450
C         45.18600        61.33522         0.09557
C         43.95456        60.68000         0.22428
C         46.60163        34.21414        -2.69261
C         47.95607        36.24859        -2.09630
C         46.62463        35.57198        -2.33983
C         47.86537        37.61093        -1.43833
C         46.64197        38.31329        -1.35736
C         47.76198        40.19885        -0.29169
C         46.57730        39.59623        -0.74183
C         47.75877        41.52904         0.43108
C         46.46839        42.30159         0.29408
C         47.69422        44.43867         0.75521
C         46.44325        43.69382         0.55887
C         47.70982        45.71783         1.28505
C         46.40796        46.39940         1.49596
C         47.63452        48.58680         2.14655
C         46.35637        47.84930         1.87965
C         47.64930        50.06110         1.91501
C         46.41278        50.75254         1.80327
C         47.65492        52.86627         1.71910
C         46.40184        52.18325         1.73115
C         47.66734        54.33181         1.80600
C         46.40997        55.08076         1.62712
C         47.71613        57.27582         1.59430
C         46.42812        56.47135         1.40624
C         47.65901        58.66475         0.98202
C         46.48734        59.26907         0.61072
C         47.63509        61.39734         0.10040
C         46.43916        60.67872         0.24451
C         49.03489        38.22112        -0.99148
C         50.22561        40.18840        -0.08924
C         49.01473        39.53820        -0.46034
C         50.24699        41.56215         0.26890
C         48.97023        42.33370        -0.04130
C         50.21058        44.36840         1.07352
C         48.97318        43.76627         0.46659
C         50.14095        45.70544         1.69860
C         48.94251        46.37831         1.70486
C         50.21156        48.57051         2.12340
C         48.91090        47.80186         2.15452
C         50.13769        49.94918         1.48325
C         48.87052        50.74070         1.76858
C         50.11621        52.86139         1.27667
C         48.88369        52.16003         1.63122
C         50.11954        54.24889         1.04391
C         48.97422        55.06206         1.46206
C         50.05350        57.07707         0.57308
C         48.93434        56.49082         1.12700
C         50.18416        58.55618         0.53398
C         48.91143        59.41088         0.83766
C         50.09760        61.37645        -0.09534
C         48.89198        60.77037         0.27566
C         51.37150        42.13783         0.81464
C         52.61260        44.30210         1.13376
C         51.39145        43.48935         1.46907
C         52.61535        45.65632         1.37019
C         51.48042        46.28407         2.18521
C         52.86861        48.53435         1.96071
C         51.51064        47.82727         2.17106
C         52.73575        50.03519         1.64528
C         51.40955        50.76200         1.64003
C         52.52605        52.79443         0.71332
C         51.35049        52.14795         1.12544
C         52.46946        54.15846         0.25396
C         51.23924        54.89784         0.43354
C         52.22329        56.89059        -0.68108
C         51.17145        56.27797         0.13829
C         52.23143        58.37388        -0.90938
C         51.22540        59.19778        -0.24309
C         52.48179        61.24603        -0.78452
C         51.27116        60.60841        -0.35289
C         53.69386        46.43528         0.86380
C         54.91681        48.50997         0.53010
C         53.81196        47.81452         1.03148
C         55.00024        49.93365         0.55559
C         53.86057        50.70591         0.96639
C         54.93502        52.72472         0.08786
C         53.77761        52.06630         0.61255
C         54.88371        54.09976        -0.27246
C         53.62971        54.78884        -0.23193
C         54.79688        56.88171        -1.08241
C         53.54684        56.12439        -0.83883
C         54.79706        58.27409        -1.30034
C         53.54399        59.06475        -1.29490
C         54.88765        61.15907        -1.29988
C         53.62936        60.52782        -1.09650
C         56.14345        50.58943         0.07098
C         57.31976        52.67490        -0.52497
C         56.15464        51.99255        -0.10327
C         57.29816        54.05366        -0.79180
C         56.05945        54.77070        -0.71461
C         57.24336        56.85151        -1.34958
C         56.03028        56.17193        -1.03708
C         57.22928        58.24150        -1.59187
C         56.02325        58.96622        -1.49459
C         57.30432        61.09224        -1.67194
C         56.05128        60.42746        -1.53969
C         58.49853        54.75432        -1.12650
C         59.72625        56.84044        -1.55896
C         58.49806        56.12106        -1.36803
C         59.75020        58.20760        -1.77453
C         58.46967        58.92222        -2.08353
C         59.75178        61.06023        -1.86385
C         58.50386        60.40169        -1.83910
C         60.96365        58.94750        -1.81877
C         60.95420        60.33774        -1.89534
O         43.23830        50.43273         0.18133
O         49.93057        59.17529         1.83694
O         44.82483        38.60076        -2.98324
O         48.22408        48.12504         3.40891
O         52.53530        58.71388        -2.29632
O         51.66809        45.87355         3.56191
O         38.00060        59.01644         1.70311
O         46.10313        46.77953         2.86195
O         58.35883        58.85934        -3.64771
O         48.55346        54.82784         2.87182
O         40.55955        41.54918         1.25007
O         31.43013        60.23071        -0.45037
O         42.82546        40.27666         1.10864
O         44.61268        58.53980        -0.78800
O         52.53475        56.16057        -1.90425
O         39.13714        48.08737         2.71604
O         39.63070        55.42532        -0.37114
O         52.20909        50.70395         2.85404
O         36.16556        51.39143         2.41877
O         49.93407        44.51551        -0.36931
O         33.97218        51.01867        -1.28886
H         34.78431        51.48578        -1.57283
O         39.72632        57.30671         2.70975
H         38.98209        57.96437         2.74023
O         38.12761        57.18602        -1.49423
H         38.60690        56.35753        -1.73273
O         53.53624        48.46950         3.24344
H         52.98851        49.00722         3.86050
O         48.64717        36.38665        -3.35501
H         48.10419        36.95855        -3.93617
O         47.94798        41.28474         1.85091
H         47.16483        40.80371         2.19114
O         41.46944        47.44054         3.35084
H         40.52845        47.39436         3.65702
O         39.66703        54.65047         3.23156
H         39.71285        55.63184         3.38238
O         48.85323        42.41006        -1.48039
H         49.44692        43.13770        -1.77363
O         42.66920        45.21682         2.80416
H         42.47169        46.00910         3.36637
O         51.31259        43.23757         2.89568
H         51.50665        44.08650         3.36990
O         41.34575        52.20723         3.63976
H         40.43359        52.46597         3.90392
O         45.39473        46.37763        -0.64960
H         44.54630        46.27598        -1.13010
O         58.36099        57.48012        -4.03089
H         57.40049        57.25139        -4.08221
O         42.74280        54.54519         3.53266
H         42.19150        53.80787         3.90393
O         41.70472        47.02480        -0.29348
H         41.49561        46.31640        -0.93792
O         50.91144        48.40836         3.38512
H         51.23854        46.56278         4.12207
O         47.85193        57.47765         3.02828
H         48.09922        56.60193         3.41502
O         50.07098        49.63940         0.04794
H         49.90657        50.47450        -0.44039
O         33.55053        51.92022         2.24269
H         34.38440        51.63175         2.69237
H         29.70385        56.38141        -1.77974
H         28.60144        58.46022        -2.63980
H         30.89292        62.06848        -3.19328
H         28.79614        60.78860        -3.42414
H         31.77639        52.45039         0.21670
H         30.76512        54.39808        -0.81635
H         33.31912        62.21980        -2.28472
H         34.55275        48.27980        -0.44167
H         33.11865        50.22320         0.40324
H         35.52502        62.37617        -1.24087
H         36.96238        44.01092        -0.53848
H         35.72314        46.13261        -0.33135
H         37.88619        62.44886        -0.56881
H         39.49498        39.83878        -1.42251
H         38.26073        42.04884        -1.11116
H         40.33577        62.47564        -0.15716
H         41.99920        35.77479        -2.53222
H         40.69397        37.75077        -1.82850
H         42.73651        62.45687         0.01400
H         45.38822        32.51445        -3.26904
H         43.23862        33.76450        -3.12522
H         45.18933        62.42177        -0.08016
H         47.54604        33.65537        -2.75241
H         48.59741        35.58046        -1.46368
H         47.59903        62.44945        -0.21863
H         49.99666        37.69941        -1.10132
H         51.16017        39.60701        -0.06466
H         50.09529        62.43643        -0.38986
H         52.25193        41.49860         0.99194
H         53.44481        43.84623         0.57533
H         52.53063        62.34459        -0.75001
H         54.45901        45.91306         0.26830
H         55.71652        47.94876         0.02350
H         54.94400        62.25660        -1.24529
H         57.03513        50.00254        -0.19236
H         58.26102        52.11652        -0.63308
H         57.32535        62.18940        -1.58375
H         59.44725        54.19801        -1.14799
H         60.67398        56.28935        -1.45745
H         59.77772        62.15792        -1.80065
H         61.91860        58.40928        -1.72915
H         61.90742        60.88458        -1.90821
