         349
 CSIRO Nanostructure Databank - Neutral Graphene Oxide Data Set
C          1.22557         1.95941         0.80393
C          1.19532         3.36514         0.55198
C          2.38711         1.24257         0.76563
C          2.33236         4.09244         0.24143
C          1.38437         6.27435         0.99822
C          1.39009         7.69309         0.98998
C          2.36095         5.54615         0.34367
C          2.43543         8.43046         0.45274
C          1.17718        10.59044         0.56004
C          1.14517        11.97882         0.53637
C          2.38671         9.89150         0.36505
C          2.30780        12.71580         0.26460
C          1.17702        14.97460        -0.20191
C          1.23693        16.32167        -0.26738
C          2.28081        14.21143         0.50015
C          2.42586        17.05530         0.16028
C          2.44589        18.50141         0.11261
C          3.60703         1.83280         0.21551
C          3.56528         3.37069        -0.12380
C          4.90621         1.27177         0.54665
C          4.86012         4.08163        -0.15709
C          3.47938         6.28543        -0.26865
C          3.59980         7.74283        -0.06053
C          4.80410         5.51673        -0.50636
C          4.78646         8.41514        -0.33288
C          3.55574        10.61576         0.04243
C          3.50360        12.02520        -0.01453
C          4.89597         9.90281        -0.01837
C          4.72619        12.80632        -0.33971
C          3.61182        14.90226         0.30782
C          3.59019        16.34979         0.42792
C          4.78038        14.21707         0.12283
C          4.83079        17.06580         0.77215
C          3.57131        19.22600         0.35664
C          4.81998        18.57293         0.77595
C          6.10087         2.00641         0.42840
C          6.06380         3.42395         0.03698
C          7.32447         1.41427         0.76072
C          7.32347         4.12319        -0.13855
C          6.03190         6.30099        -0.55774
C          6.00946         7.69823        -0.63646
C          7.27725         5.51201        -0.67050
C          7.26671         8.44357        -0.77061
C          5.91140        10.57028        -0.97779
C          5.96508        12.10088        -0.79505
C          7.25980         9.89334        -0.80576
C          7.27104        12.79450        -0.60125
C          6.09366        14.90399         0.16581
C          6.14341        16.36069         0.53419
C          7.29076        14.21270        -0.37005
C          7.28148        17.21939         0.00907
C          6.11857        19.27950         0.73149
C          7.32712        18.66012         0.48226
C          8.56210         2.22796         0.95729
C          8.54046         3.52633         0.17703
C          9.83401         1.44718         0.78243
C          9.80169         4.17922        -0.01875
C          8.55983         6.27612        -0.80779
C          8.48160         7.74639        -0.72582
C          9.90070         5.57844        -0.61787
C          9.70764         8.45798        -0.52147
C          8.43648        10.63507        -0.80953
C          8.45782        12.07744        -0.68358
C          9.72165         9.89994        -0.83321
C          9.73615        12.76747        -0.22443
C          8.49623        14.93290        -0.39672
C          8.48002        16.41162        -0.49037
C          9.75738        14.27893        -0.36773
C          9.78037        17.07666        -0.56169
C          8.53793        19.38078         0.78742
C          9.80473        19.09525         0.24718
C         11.02705         2.09969         0.54366
C         11.00323         3.53399         0.26818
C         12.28785         1.41135         0.51036
C         12.26793         4.24293         0.15139
C         10.91367         6.35242         0.23418
C         10.83527         7.84681        -0.00509
C         12.26549         5.65336        -0.01659
C         11.91030         8.67682         0.48807
C         11.04016        10.61683        -0.74773
C         11.02193        12.12430        -0.70821
C         12.15564         9.92908        -0.06139
C         12.26943        12.88299        -0.42950
C         10.95868        15.00731        -0.21111
C         10.98508        16.46307        -0.23126
C         12.23195        14.34728        -0.19055
C         12.22093        17.21124        -0.06612
C         11.08965        19.35843         0.71523
C         12.26051        18.61846         0.28889
C         13.50515         2.07849         0.33601
C         13.49911         3.53322         0.18063
C         14.74269         1.37615         0.25303
C         14.72176         4.22093         0.02665
C         13.47697         6.28104        -0.33087
C         13.59553         7.66025        -0.87147
C         14.71909         5.59141        -0.28207
C         14.75950         8.45806        -0.30865
C         13.43787        10.66777         0.14196
C         13.48205        12.15414         0.04794
C         14.74265         9.91964        -0.05174
C         14.79881        12.93365         0.04634
C         13.41886        15.05525        -0.27434
C         13.45486        16.49253        -0.13366
C         14.67229        14.30123        -0.66381
C         14.71115        17.15883        -0.05377
C         13.51412        19.23810         0.43978
C         14.74566        18.56358         0.22332
C         15.98687         2.02798         0.11117
C         16.04529         3.53103         0.27947
C         17.20156         1.35827        -0.04424
C         17.15015         4.14266        -0.59195
C         15.99539         6.31843        -0.44958
C         16.02693         7.74607        -0.56487
C         17.19767         5.63428        -0.42831
C         17.23241         8.46105        -0.69625
C         15.89749        10.66092        -0.66080
C         15.92377        12.15634        -0.62732
C         17.16983         9.91629        -0.96343
C         17.23691        12.82945        -0.58669
C         15.95074        15.05181        -0.40080
C         15.96749        16.44177        -0.17972
C         17.17407        14.25674        -0.21282
C         17.20424        17.15077        -0.08579
C         15.98979        19.23260         0.32642
C         17.22828        18.55442         0.15719
C         18.45901         2.05581        -0.20071
C         18.47759         3.46035        -0.40314
C         19.69415         1.37269        -0.14397
C         19.69842         4.16571        -0.58909
C         18.49282         6.35609        -0.17894
C         18.47264         7.81038        -0.58057
C         19.71628         5.60869        -0.64459
C         19.69993         8.53934        -0.61495
C         18.46655        10.69406        -1.03545
C         18.43363        12.15908        -0.73593
C         19.70796         9.91228        -0.82044
C         19.69078        12.87248        -0.55783
C         18.47448        14.98922        -0.07759
C         18.49125        16.45262        -0.45182
C         19.71161        14.21781        -0.28758
C         19.75095        17.14084         0.01042
C         18.47640        19.24095         0.23950
C         19.72879        18.55590         0.20599
C         20.91339         2.05765        -0.32219
C         20.92357         3.44400        -0.59741
C         22.16904         1.37398        -0.10424
C         22.22602         4.14211        -0.91131
C         20.94806         6.31963        -0.64487
C         20.96248         7.79414        -0.19715
C         22.15618         5.62970        -0.66887
C         22.25355         8.50421        -0.60775
C         20.97314        10.63502        -0.99513
C         20.96433        12.16615        -0.84791
C         22.25187         9.94230        -0.84534
C         22.24905        12.80083        -0.54802
C         20.95270        14.93117         0.07446
C         20.95877        16.42027         0.12038
C         22.24495        14.17472        -0.00196
C         22.18073        17.08836         0.32384
C         20.96700        19.22419         0.37884
C         22.19157        18.51746         0.39764
C         23.35532         2.05626        -0.00132
C         23.43753         3.46980        -0.28204
C         24.57522         1.29288         0.45893
C         24.63103         4.15912        -0.13505
C         23.39124         6.34758        -0.19329
C         23.42190         7.80295        -0.61042
C         24.68732         5.60789        -0.57170
C         24.70287         8.42028        -1.14606
C         23.42766        10.68129        -0.92403
C         23.42995        12.12012        -0.77082
C         24.72299         9.95545        -1.03558
C         24.74886        12.88091        -0.79058
C         23.50008        14.93397         0.01813
C         23.46111        16.32418         0.61320
C         24.68091        14.28848        -0.23856
C         24.70160        17.10185         0.26250
C         23.44206        19.20868         0.46496
C         24.67763        18.54073         0.32484
C         25.86041         2.08382         0.43559
C         25.86313         3.48322         0.19649
C         27.05072         1.40346         0.67218
C         27.11229         4.19050         0.20628
C         25.88586         6.38339        -0.01014
C         25.96913         7.77553        -0.60383
C         27.17490         5.59684        -0.02226
C         27.16851         8.47686        -0.49196
C         25.98402        10.68073        -0.65627
C         25.83352        12.07637        -0.03585
C         27.20612         9.89652        -0.41254
C         27.13775        12.84019         0.08263
C         25.92830        14.99416        -0.14515
C         25.88618        16.41506        -0.02033
C         27.17128        14.26014        -0.03432
C         27.11893        17.17636        -0.26085
C         25.89977        19.26720         0.23643
C         27.13298        18.62613         0.00785
C         28.29732         2.07508         0.67852
C         28.32940         3.48176         0.43973
C         29.51414         1.37448         0.92775
C         29.57630         4.17696         0.48114
C         28.39953         6.27096        -0.00892
C         28.44534         7.71040        -0.34761
C         29.62317         5.58711         0.26455
C         29.74438         8.44601        -0.12995
C         28.35774        10.57437         0.17214
C         28.30851        12.08178         0.48886
C         29.70547         9.94652        -0.00205
C         29.57121        12.82293         0.85558
C         28.37998        14.97881         0.16477
C         28.45245        16.39992        -0.16087
C         29.55881        14.32460         0.76034
C         29.66475        17.17595         0.14841
C         28.36579        19.29620         0.01362
C         29.61484        18.60266         0.07857
C         30.71638         2.04533         0.96885
C         30.77330         3.45177         0.76445
C         32.00493         4.16113         0.85189
C         30.86977         6.29569         0.43627
C         30.91365         7.71474         0.39273
C         32.04574         5.52795         0.71764
C         32.05168         8.47899         0.81532
C         30.94766        10.67843         0.39019
C         30.96345        12.13836         0.84951
C         32.09839         9.84442         0.80257
C         31.88228        12.92423        -0.08849
C         30.92613        15.03113         0.77726
C         30.86532        16.52144         0.47696
C         31.86661        14.26179        -0.13085
C         32.03815        17.27338         0.63824
C         30.82517        19.32827         0.22849
C         32.01841        18.66686         0.48136
O         29.34871         7.99164        -1.47606
O         20.94017         7.72078         1.23434
O          5.10209        12.76284        -1.78834
O         15.47905        11.45185        -1.81772
O         30.54723        10.58483        -1.02371
O          9.75496        18.37748        -0.99104
O         14.95860         9.02569         1.08981
O          3.44451         2.35193        -1.14621
O         21.52654        14.31015         1.30218
O         11.78369        12.66416        -1.81414
O         28.04328        11.04887         1.54514
O          7.47640        16.98960        -1.40921
O          4.72096        17.78728         2.04347
O          7.89869         5.71900        -2.00192
O         27.84620        16.76346        -1.45059
O          3.85910         5.81357        -1.58748
O         17.74181        10.29231        -2.24992
O         17.77762        14.60426         1.12368
O         10.56581        10.13485        -2.03846
O         13.35081        11.49963         1.36591
O         25.58358        10.53225        -2.08840
O         13.08110         8.01170        -1.91778
O         20.93840        11.52779        -2.16361
O          6.45680        15.39006         1.56561
O         29.30135        13.63697         2.04303
O         12.61544         8.12120         1.51009
H         13.39565         8.68551         1.75512
O         16.40504         3.78892         1.65908
H         15.71364         3.40292         2.23547
O         23.48336        16.13079         2.07432
H         22.76116        15.48348         2.26978
O         31.51598        12.16005         2.16857
H         31.57174        13.11366         2.43633
O         25.63726         6.59870         1.41333
H         26.40041         7.08277         1.79187
O         10.57936         6.13120         1.62758
H         11.23554         6.63082         2.16259
O          5.48291        10.02732         1.31335
H          4.83998         9.67366         1.96350
O         10.49190         5.45354        -1.92910
H          9.75638         5.29136        -2.56293
O         14.58209        14.02665        -2.08434
H         14.34345        14.85195        -2.55423
O         18.67634         6.34841         1.28063
H         19.53408         6.87196         1.46569
O         23.18215         6.26309         1.24159
H         22.36358         6.82648         1.45058
O         25.34090        11.86630         1.31225
H         26.10499        11.55426         1.85358
O         25.13792        13.08468        -2.16441
H         25.21666        12.19730        -2.59367
O         24.83244         5.58235        -2.00308
H         24.09037         5.05236        -2.38340
O         31.47348        14.91580         2.12253
H         30.74956        15.12234         2.75307
O          1.98368        14.33474         1.93371
H          2.07502        15.28245         2.17267
O         18.55750        16.44125        -1.92656
H         18.59909        17.37352        -2.22877
O          9.78108        12.50116         1.22502
H          8.99274        12.91973         1.63322
O         24.68271         8.14024        -2.57726
H         25.35202         8.73231        -2.98975
O         16.74999         3.88249        -1.97382
H         17.39872         4.30771        -2.57243
O          5.49017        10.28776        -2.32398
H          5.11897        11.12167        -2.69738
O          8.53342         2.63306         2.39490
H          7.81508         3.29369         2.49616
O         24.34919         0.79832         1.79616
H         24.21752         1.56945         2.38568
O         15.17871        13.21635         1.39883
H         14.73575        12.55335         1.98022
O         22.45690         4.01295        -2.38226
H         21.65308         4.34146        -2.83978
H          0.30279         1.48099         1.16173
H          0.24959         3.89304         0.73853
H          2.42694         0.21531         1.15642
H          0.54537         5.76132         1.48835
H          0.53057         8.20733         1.44031
H          0.25014        10.03979         0.76823
H          0.20805        12.50695         0.75983
H          0.27367        14.43788        -0.52721
H          0.39824        16.90034        -0.68306
H          1.52423        19.01504        -0.19873
H          4.94017         0.27894         1.02065
H          3.57440        20.31486         0.20178
H          7.33728         0.35894         1.07341
H          6.12152        20.34139         1.02260
H          9.81908         0.36202         0.96410
H          8.44924        20.20892         1.50639
H         12.28939         0.31861         0.64432
H         11.22886        20.11502         1.50124
H         14.71834         0.27475         0.25681
H         13.54360        20.29703         0.73572
H         17.21822         0.25715        -0.04244
H         15.99676        20.31171         0.54222
H         19.70986         0.29375         0.07002
H         18.47213        20.32805         0.40568
H         22.14520         0.29651         0.11573
H         20.97737        20.31855         0.49196
H         24.69895         0.38228        -0.18591
H         23.43481        20.30742         0.52646
H         27.02382         0.32016         0.86081
H         25.87886        20.36006         0.36293
H         29.47721         0.28909         1.09928
H         28.37625        20.39214         0.11176
H         31.64903         1.50008         1.17377
H         32.92936         3.60025         1.05163
H         33.01371         6.03893         0.80560
H         32.93416         7.94030         1.18860
H         32.98787        10.36124         1.18890
H         32.58003        12.35635        -0.72203
H         32.54942        14.81712        -0.79123
H         32.97536        16.75996         0.89280
H         30.80404        20.42512         0.15767
H         32.94965        19.23900         0.59489
