         234
 CSIRO Nanostructure Databank - Neutral Graphene Oxide Data Set
C          1.35067         1.88372         0.31844
C          1.25676         3.24964         0.40704
C          2.57129         1.21081         0.03069
C          2.39581         4.10938         0.06502
C          1.21661         6.26676         0.61778
C          1.14853         7.61946         0.77579
C          2.45298         5.55462         0.44195
C          2.35972         8.41857         0.97516
C          1.22972        10.61139         0.55866
C          1.22481        12.02016         0.52390
C          2.37356         9.88856         0.83304
C          2.41685        12.76876         0.65616
C          1.21846        14.96766         0.51105
C          1.22996        16.35043         0.49468
C          2.41822        14.21833         0.60515
C          2.44639        17.06887         0.61172
C          2.46700        18.50992         0.44569
C          3.75942         1.91763        -0.15149
C          3.69815         3.39641        -0.21756
C          5.02540         1.28781        -0.28952
C          4.99576         4.09697         0.11402
C          3.66291         6.25227         0.38195
C          3.69323         7.68689         0.74920
C          4.91071         5.60678         0.04706
C          4.86979         8.51658         0.39306
C          3.66772        10.60344         1.15806
C          3.64920        12.07720         0.79952
C          4.89003         9.87657         0.60739
C          4.87340        12.78478         0.74790
C          3.65633        14.92272         0.70007
C          3.64757        16.34654         0.74849
C          4.89817        14.20639         0.73495
C          4.91246        17.06406         0.94718
C          3.61835        19.22713         0.43134
C          4.90727        18.61120         0.77770
C          6.20894         2.01102        -0.53646
C          6.10115         3.50854        -0.77283
C          7.45390         1.38680        -0.65555
C          7.40172         4.25261        -0.58422
C          6.08968         6.31696        -0.13094
C          6.04355         7.80566        -0.16630
C          7.34415         5.62915        -0.35526
C          7.31339         8.58805        -0.28339
C          6.12071        10.65446         0.51573
C          6.11329        12.04218         0.69269
C          7.35255         9.99584         0.16557
C          7.37966        12.77199         0.83957
C          6.15829        14.92731         0.68810
C          6.17011        16.35318         0.71827
C          7.39069        14.23904         0.68220
C          7.37529        17.07518         0.50901
C          6.17065        19.24343         0.41384
C          7.36442        18.54250         0.39263
C          8.67113         2.12226        -0.80567
C          8.64017         3.57085        -0.74724
C          9.89958         1.46297        -0.92942
C          9.86445         4.29603        -0.81136
C          8.62258         6.36293        -0.26565
C          8.61747         7.86252        -0.20953
C          9.87393         5.71021        -0.67990
C          9.80695         8.58197        -0.67881
C          8.56829        10.65160         0.09989
C          8.69957        12.00548         0.63154
C          9.66802        10.05187        -0.71194
C         10.01661        12.76717         0.53226
C          8.61954        14.94441         0.43856
C          8.56609        16.36979         0.27653
C          9.84842        14.24895         0.29752
C          9.71490        17.10925        -0.37503
C          8.61009        19.24313         0.24829
C          9.80544        18.58109        -0.00699
C         11.14513         2.16491        -1.00703
C         11.11692         3.62644        -0.93080
C         12.34077         1.49932        -1.21031
C         12.30399         4.36646        -0.92839
C         11.05264         6.45843        -0.87673
C         10.97748         7.90049        -0.95206
C         12.32640         5.78919        -1.00545
C         12.17301         8.60622        -1.45240
C         10.88675        10.87325        -1.03751
C         11.03117        12.20977        -0.44307
C         12.12223        10.14059        -1.48354
C         12.25058        12.89537        -0.57332
C         11.11177        14.97766         0.14151
C         11.05757        16.46350        -0.12039
C         12.33862        14.27122        -0.24612
C         12.25307        17.15326        -0.73929
C         11.05988        19.24377        -0.03468
C         12.29357        18.60449        -0.29625
C         13.64692         2.24332        -1.34022
C         13.55645         3.60657        -0.63207
C         14.78566         1.46718        -0.73024
C         14.81223         4.40787        -0.78742
C         13.56808         6.50690        -1.17413
C         13.48984         7.91029        -1.46918
C         14.83974         5.77655        -0.97590
C         14.56333         8.71829        -1.90489
C         13.40465        10.84606        -1.38253
C         13.44992        12.19786        -1.00510
C         14.58114        10.14571        -1.76142
C         14.70626        12.85872        -0.87561
C         13.54883        15.00233        -0.48024
C         13.53919        16.40488        -0.52435
C         14.77095        14.26274        -0.66700
C         14.74686        17.15710        -0.84587
C         13.52940        19.25949        -0.23848
C         14.77381        18.60238        -0.50669
C         15.88362         2.13475        -0.19624
C         16.01514         3.60291        -0.46973
C         16.91711         1.46079         0.48799
C         17.18255         4.33663         0.08227
C         16.16954         6.44383        -0.83147
C         16.55169         7.55313        -1.51014
C         17.12802         5.84322         0.19831
C         17.86819         8.24501        -1.34009
C         15.81939        10.86484        -1.66719
C         15.91179        12.12300        -1.09892
C         17.86786         9.72937        -1.29592
C         17.15759        12.69557        -0.49398
C         16.04644        14.91583        -0.74784
C         16.07725        16.38881        -0.93186
C         17.21998        14.18323        -0.60476
C         17.28949        17.13201        -0.61788
C         15.99756        19.25194        -0.43159
C         17.26503        18.55212        -0.46025
C         17.94940         2.16141         1.25223
C         18.09246         3.66588         1.06109
C         19.13634         1.47322         1.79038
C         19.37564         4.31810         1.33586
C         18.57210         6.32142         0.14610
C         18.89227         7.58959        -0.50078
C         19.59520         5.65395         0.86029
C         19.92031         8.42039         0.15344
C         18.63732        10.45936        -0.42734
C         18.39345        11.91299        -0.09728
C         19.76246         9.77343         0.22727
C         19.62190        12.71447         0.30673
C         18.52077        14.85771        -0.63060
C         18.54097        16.39473        -0.58914
C         19.69730        14.19517         0.01259
C         19.76466        17.04025        -0.04953
C         18.47616        19.25290        -0.34136
C         19.73609        18.57662        -0.02801
C         20.23215         2.16127         2.19934
C         20.40051         3.58976         1.97354
C         21.62383         4.24243         2.23032
C         20.86272         6.28697         1.11989
C         21.17362         7.65778         0.51124
C         21.83412         5.56542         1.81554
C         22.15087         8.51683         1.26969
C         20.72134        10.58958         1.09196
C         20.89776        11.99222         0.51291
C         21.99580         9.83945         1.41442
C         22.07668        12.68171         0.43969
C         21.02604        14.86133        -0.07456
C         21.05907        16.32184        -0.16961
C         22.14433        14.08523         0.13499
C         22.21202        17.07425        -0.18691
C         21.03474        19.23756        -0.19664
C         22.18659        18.50991        -0.23454
O         15.71084         8.15161        -2.45560
O         18.81574        15.62571        -1.82619
O          9.78544        10.73194        -2.01395
O          3.19420         7.94972         2.10661
O         11.94058         9.36471        -2.69421
O          6.50687         8.34294        -1.47496
O         11.29070        16.01772         1.21123
O          8.15056        12.20904         1.97095
O         17.31297        12.12597         0.86889
O         19.35403        13.70798         1.34701
O          2.92032         3.91616        -1.31608
O         15.35964        16.83525        -2.14674
O         17.22626         3.87397        -1.28991
O          8.78034         7.09944         1.03001
O         20.00458        10.74477         2.29009
O         16.96552        10.28341        -2.19793
O         19.00260         7.56891        -2.01457
O          4.92794        17.96855         2.09544
O         19.59328        17.73779         1.20190
O         17.38146         3.15564         2.22910
O         13.47777         3.27968         0.79649
H         13.37857         4.11699         1.29719
O         13.90970         2.49471        -2.75028
H         14.08994         1.63758        -3.18838
O         10.67115        12.63789         1.83720
H          9.95807        12.66217         2.51766
O          9.41488        17.03696        -1.79741
H         10.22850        17.30553        -2.28880
O         16.59350         6.18972         1.50599
H         17.06318         5.66075         2.18672
O         21.81267         7.34327        -0.77245
H         21.10385         7.17051        -1.43191
O         12.06362        17.16251        -2.19592
H         12.92082        17.40916        -2.60844
O          5.69646         3.70393        -2.14971
H          6.39335         3.33488        -2.73045
O          5.28421         3.75341         1.49399
H          6.11148         4.20930         1.75760
O          3.79785        10.57053         2.62201
H          3.70006         9.62162         2.88338
H          0.46527         1.27312         0.54757
H          0.32404         3.70224         0.77323
H          2.58711         0.11123         0.03316
H          0.27715         5.70610         0.51238
H          0.17066         8.11983         0.75038
H          0.27745        10.08829         0.38852
H          0.26605        12.52759         0.35795
H          0.25249        14.45007         0.44132
H          0.28643        16.90569         0.39423
H          1.51166        19.00675         0.21971
H          5.08133         0.19067        -0.20570
H          3.60797        20.29189         0.15437
H          7.51320         0.28968        -0.57932
H          6.16487        20.31168         0.14909
H          9.91375         0.36290        -0.96666
H          8.61444        20.33268         0.40565
H         12.33510         0.40857        -1.36602
H         11.07211        20.32402         0.18288
H         14.69583         0.37662        -0.60401
H         13.55642        20.31774         0.06486
H         16.90821         0.36024         0.51345
H         16.01726        20.33186        -0.22163
H         19.11390         0.37558         1.86340
H         18.47333        20.35098        -0.41602
H         21.08705         1.61428         2.62453
H         22.43362         3.69625         2.73498
H         22.80728         6.03095         2.02502
H         23.08280         8.04115         1.61356
H         22.76420        10.40653         1.96311
H         23.02553        12.16265         0.63971
H         23.14042        14.55086         0.12219
H         23.19249        16.57943        -0.22561
H         21.05611        20.32732        -0.34284
H         23.14749        19.03235        -0.34673
