         252
 CSIRO Nanostructure Databank - Neutral Graphene Oxide Data Set
C         30.61511        32.06330        -1.62216
C         30.61353        33.28724        -1.27654
C         30.58536        36.26754        -0.48308
C         30.41138        37.47373        -0.79770
C         30.92929        40.69131        -1.67301
C         31.04478        41.94720        -1.75555
C         33.00975        29.18520        -1.89443
C         31.93126        29.83283        -1.95890
C         33.05831        31.96059        -1.44961
C         31.66610        31.18098        -1.71659
C         32.91671        33.24966        -0.62746
C         31.64506        34.00120        -0.62579
C         32.71819        35.93380         0.57567
C         31.56384        35.31623        -0.14734
C         32.88003        37.41599         0.61619
C         31.13679        38.58657        -0.30357
C         32.96113        40.36211        -0.49144
C         31.60722        39.75733        -0.88265
C         33.03190        41.86771        -0.37342
C         31.97947        42.66534        -0.97158
C         33.12388        44.63773        -0.22186
C         32.17959        44.06341        -0.78983
C         35.58221        27.51887        -1.26732
C         35.43495        28.91633        -1.10839
C         34.23413        29.68408        -1.31385
C         35.37471        31.65956        -0.38356
C         34.16516        31.03358        -0.97165
C         35.35202        33.10458        -0.04030
C         34.04887        33.83558        -0.12356
C         35.29081        35.94376         0.52065
C         34.02093        35.16940         0.52297
C         35.30194        37.29877         0.35045
C         34.04804        38.04702         0.30697
C         35.17668        40.21976         0.88451
C         34.11049        39.53006         0.03815
C         35.31791        41.71389         0.62158
C         34.20699        42.46991         0.15408
C         35.26997        44.54373         1.12888
C         34.47743        44.00590        -0.02120
C         35.48357        45.87394         1.39774
C         37.86159        27.31116        -0.56812
C         36.61297        26.83813        -1.04607
C         37.81193        28.74677        -0.41483
C         36.66784        29.51832        -0.68825
C         37.81640        31.67515         0.17295
C         36.72898        31.03465        -0.66838
C         37.84911        33.03237         0.36569
C         36.66776        33.89407        -0.08792
C         37.79913        35.96290         0.77455
C         36.53658        35.14903         0.81804
C         37.84023        37.31389         0.58483
C         36.59316        38.08219         0.14550
C         37.81829        40.20002         0.96730
C         36.52289        39.45456         0.86999
C         37.79302        41.67767         1.00000
C         36.53791        42.34732         0.97174
C         37.75060        44.55694         0.92478
C         36.54142        43.77940         1.45816
C         37.75049        46.09688         1.05294
C         36.49811        46.61600         1.69168
C         40.12539        24.36283        -0.11742
C         39.16872        25.13417        -0.30339
C         40.26677        27.14042         0.17275
C         39.00884        26.54627        -0.25384
C         40.27463        28.63927         0.21005
C         38.95698        29.36112         0.31000
C         40.18134        31.52880         1.11502
C         38.92095        30.81900         0.67536
C         40.20394        33.01348         1.12551
C         39.04228        33.70959         0.90203
C         40.28985        35.88247         0.79335
C         39.01469        35.20421         1.24639
C         40.32262        37.36860         0.73718
C         39.10584        38.05477         0.65328
C         40.27858        40.23654         0.66739
C         39.10209        39.50491         0.70043
C         40.27033        41.68367         0.72666
C         39.02110        42.39388         0.90830
C         40.19577        44.57766         0.66848
C         39.02522        43.83387         0.87541
C         40.21581        46.01530         0.78869
C         39.06188        46.73480         1.12668
C         40.36422        48.74138         1.15271
C         39.31997        48.11170         1.45475
C         42.71302        24.37208         0.03757
C         41.37108        24.81716         0.60697
C         42.69651        27.08663         0.78953
C         41.39408        26.39659         0.49162
C         42.76354        28.59325         0.88597
C         41.51323        29.36469         0.59009
C         42.79118        31.48056         1.11942
C         41.46841        30.76398         1.12765
C         42.81574        32.95855         1.35030
C         41.48032        33.71932         1.63501
C         42.79246        35.90642         1.21674
C         41.54102        35.12135         1.03254
C         42.78211        37.36175         0.95141
C         41.58507        38.05737         0.76241
C         42.79309        40.31006         0.95650
C         41.59941        39.53412         0.37974
C         42.77003        41.77519         0.57703
C         41.46832        42.40680         0.51725
C         42.50766        44.55136        -0.14077
C         41.42893        43.85997         0.37201
C         42.36489        46.02427        -0.45715
C         41.59533        46.67490         0.70935
C         42.74486        48.80010         0.12142
C         41.60153        48.27942         0.65405
C         43.73946        25.04702         0.23812
C         45.17071        27.15110         0.37874
C         43.99880        26.43340         0.45107
C         45.20073        28.62464         0.36060
C         44.02644        29.30517         0.59267
C         45.22874        31.56237         0.34134
C         43.95141        30.78329         0.45680
C         45.19873        33.02685         0.58585
C         44.05441        33.68734         0.91292
C         45.32149        35.89769         0.74709
C         44.08424        35.15817         1.06875
C         45.29057        37.35002         0.83550
C         44.06268        38.01889         0.96305
C         45.38152        40.08420         1.15106
C         44.05249        39.47877         1.18959
C         45.24420        42.19780         0.50196
C         43.87729        42.54620         0.22283
C         44.96655        44.58992        -0.75002
C         43.66980        43.75872        -0.64965
C         44.73674        45.91379        -1.56151
C         43.74840        46.72848        -0.77217
C         43.64691        48.01438        -0.41768
C         47.60277        27.20129         0.43621
C         46.50728        26.64306         0.24201
C         47.82914        28.63224         0.19208
C         46.47442        29.38340         0.13613
C         47.73647        31.56899         0.37659
C         46.50628        30.83797         0.37207
C         47.71774        32.97770         0.34372
C         46.43741        33.75894         0.11583
C         47.76451        35.92819         0.89741
C         46.48584        35.21063         0.53595
C         47.75812        37.38965         0.47777
C         46.54315        38.06618         0.58751
C         47.74546        40.37827         0.41582
C         46.49869        39.51757         0.60728
C         47.52686        41.61764        -0.54341
C         46.32707        42.53248        -0.27316
C         47.47910        44.37208        -1.57957
C         46.17234        43.71380        -1.14248
C         47.19541        45.80547        -1.71255
C         46.14597        46.45107        -1.72418
C         50.33534        28.80113         0.49300
C         48.98702        29.37899         0.81613
C         50.19149        31.49282        -0.05316
C         49.02310        30.85846         0.35686
C         50.22775        32.98485        -0.18857
C         48.96139        33.73553         0.10862
C         50.27865        35.94041         0.16491
C         49.04649        35.17566         0.54088
C         50.18590        37.40939        -0.08188
C         48.99041        38.07482         0.12292
C         50.16595        40.33022        -0.42875
C         48.90643        39.54803        -0.15564
C         50.08857        41.81783        -0.15071
C         48.81564        42.46867        -0.65423
C         50.01365        44.46600        -1.31277
C         48.75617        43.74764        -1.17341
C         51.28228        29.39069        -0.06101
C         52.49539        31.62445        -0.69070
C         51.44310        30.77564        -0.32213
C         52.51027        32.87206        -0.94053
C         51.58610        33.70842        -0.01494
C         52.51365        36.07137        -0.50332
C         51.48418        35.17015        -0.29386
C         52.65326        37.33484        -0.42359
C         51.36499        38.11967        -0.78529
C         52.57478        40.35889        -0.75904
C         51.47315        39.59043        -0.49263
C         52.51534        41.67024        -0.87788
C         51.63088        42.64136        -0.92620
C         51.13141        43.89244        -1.22281
O         37.13616        31.48272        -2.06516
O         43.23141        43.30703        -2.01031
O         43.16960        39.93490         2.29223
O         44.35470        31.25881        -0.86404
O         47.32134        29.04282        -1.06490
O         41.13313        29.25776        -0.82455
O         50.04564        35.46309         1.57418
O         49.45792        33.53031        -1.28533
O         43.13895        32.01460         2.43210
O         46.64169        43.62467        -2.52529
O         43.55904        35.54989         2.39714
O         34.06331        39.88148        -1.36230
O         36.71189        38.38331        -1.21504
O         49.29295        39.90122        -1.51478
O         40.99763        35.21851        -0.31753
O         42.73333        27.77630         2.09170
O         35.26826        32.09322         1.02661
O         33.20630        35.21969         1.75724
O         31.77736        38.24447         0.90870
O         37.15465        39.53599         2.16332
O         38.52964        29.78415         1.64636
O         45.45984        41.39161         1.62942
O         37.52730        45.41909        -0.21285
O         40.72585        30.94574         2.35717
O         52.04150        33.52129         1.31673
H         52.76423        34.15590         1.50408
O         45.24294        45.00282         0.60505
H         45.88692        45.74336         0.58395
O         42.31705        46.35211         1.90535
H         41.81107        46.67890         2.67813
O         41.36549        33.85456         3.05080
H         41.60248        32.98651         3.44940
O         36.41143        34.65415         2.18168
H         35.58413        34.12933         2.25812
O         35.25730        44.15856        -1.19748
H         34.76241        43.79784        -1.96222
O         39.01715        35.30384         2.69182
H         38.13443        34.99732         3.00654
O         33.46500        32.42193        -2.75638
H         33.88141        31.67772        -3.24271
O         36.88300        34.33071        -1.43574
H         37.03035        33.53690        -2.00070
O         34.66652        40.13033         2.23849
H         35.44966        40.06512         2.83652
O         51.16927        37.95163        -2.18087
H         51.71519        38.60901        -2.66093
O         47.70508        35.94730         2.36152
H         48.62598        36.08985         2.68378
O         36.15149        30.97030        -3.00565
H         36.70442        30.41726        -3.61094
O         48.15423        40.85111         1.71004
H         47.35202        41.18707         2.17258
O         48.75109        29.34901         2.22322
H         49.52878        29.71984         2.68935
O         44.20811        45.60809        -2.84292
H         44.12479        46.43888        -3.35578
O         44.20835        42.35387        -2.49164
H         44.66905        42.85525        -3.21059
O         46.34291        33.80550        -1.35059
H         46.14948        32.89852        -1.67567
O         41.59358        46.14209        -1.65697
H         41.99620        45.55918        -2.33824
O         36.75343        43.70156         2.88640
H         35.99097        43.23960         3.29293
O         47.18410        41.05559        -1.82128
H         47.06696        41.79520        -2.46426
O         41.79656        39.58224        -1.06277
H         41.03076        39.14917        -1.49656
O         50.34930        42.08593         1.17712
H         50.09013        43.00294         1.39834
O         41.31039        24.47507         1.95827
H         41.33917        23.50172         2.05527
