         614
 CSIRO Nanostructure Databank - Neutral Graphene Oxide Data Set
C         23.21562        69.77988         2.01120
C         23.25449        71.16039         2.32741
C         22.12371        71.83639         2.85500
C         23.35980        73.92247         2.94654
C         22.18750        73.19721         3.15636
C         25.28275        65.64051         0.22466
C         25.41403        67.08193         0.65696
C         24.30393        67.73187         1.15573
C         25.55845        69.84667         1.27303
C         24.34282        69.12072         1.49279
C         25.60896        71.24000         1.57954
C         24.46380        71.89508         2.10717
C         25.71940        74.00588         2.19449
C         24.51753        73.29075         2.41995
C         27.94645        61.47565         0.27280
C         27.82976        62.80062        -0.08449
C         26.62797        63.54106         0.16038
C         27.81604        65.67003        -0.10137
C         26.59765        64.91795         0.08958
C         27.83497        67.09188         0.06965
C         26.64994        67.78523         0.47884
C         27.92386        69.91426         0.54561
C         26.70901        69.18065         0.76500
C         27.96760        71.31488         0.83876
C         26.81267        71.97173         1.35875
C         28.06565        74.09118         1.41491
C         26.85649        73.36867         1.67112
C         30.48288        57.22956         0.60340
C         30.47283        58.59863         0.45056
C         29.23217        59.38774         0.79697
C         30.34322        61.40808        -0.24088
C         29.19842        60.78122         0.21021
C         30.27493        62.74612        -0.97844
C         28.92814        63.53344        -0.82001
C         30.24107        65.68081        -0.45400
C         29.02253        64.97175        -0.35944
C         30.23535        67.09269        -0.41727
C         29.04869        67.81720        -0.13968
C         30.27678        70.01018        -0.14769
C         29.08214        69.25444         0.04790
C         30.33993        71.38627         0.16335
C         29.16719        72.05648         0.62886
C         30.38511        74.29709         0.53736
C         29.18005        73.46540         0.90141
C         32.88959        52.91855         0.58478
C         32.90263        54.31881         0.46348
C         31.69591        55.06763         0.54834
C         32.89206        57.15678         0.08067
C         31.68239        56.46572         0.41487
C         32.87733        58.57698        -0.11987
C         31.66190        59.29819         0.05312
C         32.81071        61.37862        -0.52053
C         31.61455        60.70330        -0.22573
C         32.80303        62.83664        -0.92417
C         31.51436        63.58264        -0.67490
C         32.72547        65.75632        -0.11088
C         31.50153        64.93941        -0.52624
C         32.75506        67.14828        -0.69581
C         31.46650        67.82157        -0.77837
C         32.79030        70.01980        -0.56220
C         31.48361        69.36031        -0.68471
C         32.81135        71.41019        -0.21529
C         31.60078        72.10196         0.07194
C         32.86687        74.16225         0.40015
C         31.65220        73.49737         0.35705
C         35.39711        48.58553         0.29929
C         35.36934        50.01536         0.40994
C         34.16437        50.69974         0.53684
C         35.46232        52.91615         0.62829
C         34.11112        52.14000         0.75514
C         35.39645        54.33069         0.18925
C         34.13249        55.02659         0.16629
C         35.27219        57.08967        -0.65205
C         34.09155        56.41145        -0.08986
C         35.32595        58.56997        -0.63308
C         34.08580        59.28261        -0.42794
C         35.30745        61.42901        -0.67360
C         34.05337        60.69244        -0.55791
C         35.30346        62.81051        -0.61710
C         34.03307        63.52314        -0.39273
C         35.29465        65.71004        -0.61454
C         34.05220        65.00628        -0.20589
C         35.18785        67.10980        -1.04306
C         33.92868        67.85882        -0.83749
C         35.26055        69.99297        -0.76112
C         33.97619        69.30483        -0.80158
C         35.28087        71.39513        -0.44237
C         34.06388        72.09158        -0.17163
C         35.32934        74.15999         0.22789
C         34.09313        73.48383         0.15814
C         37.80176        44.26312         0.43314
C         37.79079        45.68931         0.32148
C         36.60007        46.42629         0.31517
C         37.85717        48.55125         0.18097
C         36.59113        47.85066         0.22854
C         37.85957        50.01811        -0.18583
C         36.61606        50.75906         0.26024
C         37.87839        52.86623        -0.25949
C         36.64647        52.12527         0.24652
C         37.87781        54.29466         0.31024
C         36.58692        54.97177        -0.09262
C         37.87951        57.02198        -0.86086
C         36.58605        56.28739        -0.71968
C         37.81158        58.52089        -0.94704
C         36.52759        59.25160        -0.78671
C         37.77005        61.39986        -0.74061
C         36.56734        60.70129        -0.72436
C         37.82870        62.85155        -0.52816
C         36.52969        63.59596        -0.42166
C         37.75309        65.73964        -1.00162
C         36.50156        65.04949        -0.70505
C         37.74108        67.12011        -1.12692
C         36.48000        67.86936        -1.23490
C         37.73839        70.01308        -0.91360
C         36.48177        69.32641        -0.98292
C         37.75190        71.40573        -0.59664
C         36.52112        72.08534        -0.35566
C         37.78144        74.16138         0.09029
C         36.53549        73.48550        -0.01558
C         40.26760        39.99740         0.79125
C         40.21657        41.39468         0.71147
C         39.01142        42.12215         0.56765
C         40.23656        44.22151        -0.11337
C         38.98287        43.52039         0.36290
C         40.26134        45.70329         0.17933
C         39.05628        46.40125         0.29999
C         40.30961        48.55205         0.56081
C         39.03501        47.84517         0.32315
C         40.32642        50.04503         0.57160
C         39.11612        50.76980         0.19565
C         40.40936        52.86379         0.13826
C         39.15769        52.13694         0.09740
C         40.40645        54.33604         0.24605
C         39.13858        55.06252        -0.01186
C         40.38227        57.13918        -0.50972
C         39.14747        56.37495        -0.40831
C         40.35283        58.49586        -0.75471
C         39.07531        59.22975        -0.60589
C         40.32166        61.43810        -0.87318
C         39.06653        60.71256        -0.61445
C         40.28341        62.86632        -0.97422
C         39.06056        63.59057        -0.87637
C         40.24382        65.67965        -1.30181
C         39.01991        64.99038        -1.06202
C         40.23108        67.11841        -1.64620
C         38.94977        67.89252        -1.47951
C         40.19283        70.07160        -1.18319
C         38.97724        69.35154        -1.19266
C         40.20608        71.45275        -0.84018
C         38.99579        72.10970        -0.54256
C         40.22229        74.20127         0.02849
C         38.98978        73.51418        -0.16288
C         42.74449        35.70421         0.73196
C         42.74317        37.10726         0.77952
C         41.51714        37.86539         0.86058
C         42.76502        39.98007         1.11587
C         41.48281        39.25458         0.92147
C         42.78970        41.47464         1.02002
C         41.47040        42.18482         0.83522
C         42.72317        44.21642         0.19980
C         41.51391        43.55122         0.32074
C         42.70776        45.63646        -0.06532
C         41.52679        46.36217         0.05409
C         42.80407        48.59520        -0.04666
C         41.60280        47.81893         0.32138
C         42.85822        49.97264         0.03310
C         41.67094        50.77513         0.39796
C         42.87677        52.90065        -0.24070
C         41.63477        52.20687         0.06725
C         42.92306        54.28789        -0.25449
C         41.72962        55.06401         0.12469
C         42.87402        57.13861        -0.87236
C         41.72728        56.57952        -0.05209
C         42.75330        58.55698        -1.19843
C         41.57116        59.25581        -0.95882
C         42.74675        61.45453        -1.10662
C         41.52251        60.71920        -1.01115
C         42.73815        62.87125        -1.09404
C         41.50692        63.58617        -1.10698
C         42.73914        65.73412        -1.22581
C         41.48476        65.00592        -1.24045
C         42.74803        67.14516        -1.25586
C         41.52214        67.88234        -1.63515
C         42.77713        70.06769        -1.10328
C         41.48661        69.38318        -1.48542
C         42.77797        71.53879        -0.85585
C         41.46128        72.30745        -1.03903
C         42.65846        74.25727         0.02785
C         41.44699        73.59736        -0.24410
C         45.19281        32.87341         0.53928
C         43.98738        33.55217         0.63447
C         45.18801        35.68131         0.43525
C         43.95526        34.97662         0.60755
C         45.18032        37.09834         0.40252
C         43.99474        37.79151         0.62959
C         45.27580        39.99442         0.54044
C         44.04567        39.24230         0.87892
C         45.25610        41.41496         0.49694
C         44.03260        42.15864         0.60774
C         45.23309        44.24336         0.06404
C         44.00338        43.53131         0.32145
C         45.24267        45.62345        -0.27040
C         43.95691        46.32194        -0.44391
C         45.26321        48.53272        -0.59980
C         43.97041        47.83219        -0.53217
C         45.24098        49.92610        -0.63426
C         44.05305        50.69210        -0.37137
C         45.28389        52.77670        -0.88957
C         44.06981        52.09513        -0.51625
C         45.17488        54.20927        -1.37769
C         44.22890        55.03815        -0.47350
C         45.19757        57.06946        -1.82438
C         44.05476        56.45804        -0.99759
C         45.29294        58.59537        -1.66981
C         43.97746        59.31856        -1.49899
C         45.22190        61.38694        -1.11142
C         43.99288        60.74833        -1.17493
C         45.25207        62.86136        -1.17719
C         43.97273        63.60296        -1.10059
C         45.26564        65.76291        -1.06710
C         43.96514        64.98611        -1.10634
C         44.99185        67.02098        -0.28027
C         43.87523        67.87082        -0.75653
C         44.96877        69.91745         0.16227
C         43.88914        69.25140        -0.56011
C         45.02863        71.39993         0.25265
C         43.93663        72.14933        -0.14201
C         45.11157        74.31483         0.15577
C         43.91463        73.60260         0.00356
C         46.41154        33.56580         0.42886
C         47.67112        35.70169         0.34647
C         46.43604        34.96942         0.37499
C         47.70990        37.09173         0.25722
C         46.42353        37.82470        -0.05109
C         47.69428        39.97394         0.21219
C         46.46093        39.28922         0.30083
C         47.70463        41.39257         0.20835
C         46.47692        42.11346         0.26571
C         47.70586        44.22174        -0.04991
C         46.47201        43.53167         0.11368
C         47.70043        45.65390        -0.23354
C         46.45643        46.34212        -0.40732
C         47.72651        48.43289        -0.76086
C         46.48487        47.76882        -0.64563
C         47.73716        49.84306        -1.17335
C         46.44778        50.63129        -1.06952
C         47.76806        52.78176        -1.08132
C         46.48463        52.09894        -1.01491
C         47.77937        54.19361        -1.09377
C         46.54005        54.88823        -1.49588
C         47.76357        57.10363        -1.13203
C         46.56213        56.38723        -1.63449
C         47.70216        58.51162        -0.81844
C         46.48931        59.26383        -1.09725
C         47.43262        61.37346         0.02071
C         46.42811        60.63596        -0.86836
C         47.80385        62.74721        -0.67827
C         46.55633        63.58038        -0.96898
C         47.48234        65.58193         0.16658
C         46.45442        64.98983        -0.52226
C         47.40312        66.98849         0.65778
C         46.04318        67.64518         0.55528
C         47.80073        70.06369         0.87548
C         45.85978        69.08468         0.82155
C         47.65409        71.49579         0.59154
C         46.30027        72.16745         0.52436
C         47.56917        74.32541         0.17787
C         46.35907        73.63584         0.18575
C         48.91806        37.82699         0.26666
C         50.16127        39.96459         0.17043
C         48.94450        39.23879         0.18246
C         50.19477        41.37062         0.11085
C         48.94009        42.10263         0.07337
C         50.21005        44.23536        -0.34128
C         48.92544        43.49573        -0.05156
C         50.14364        45.63307         0.25769
C         48.91418        46.36996        -0.20611
C         50.21592        48.45450        -0.43771
C         48.95843        47.75559        -0.48131
C         50.29465        49.86896        -0.86999
C         49.02539        50.60675        -1.20433
C         50.22873        52.79126        -0.99170
C         48.99853        52.07991        -1.06124
C         50.22037        54.21210        -0.99264
C         48.99371        54.92131        -1.04726
C         50.16098        57.08230        -0.57293
C         48.94803        56.38084        -0.95252
C         50.08693        58.49174        -0.22256
C         48.84029        59.17417        -0.30796
C         50.02100        61.31845         0.37373
C         48.71559        60.52852         0.38777
C         50.03783        62.76025         0.41273
C         48.83274        63.49982         0.11302
C         49.95904        65.62644         0.56094
C         48.73678        64.85758         0.37618
C         49.96202        66.99950         0.44397
C         48.72755        67.76374         0.69212
C         49.99060        69.83153        -0.18134
C         48.77725        69.22979         0.44208
C         50.03524        71.33007        -0.34011
C         48.79228        72.14215        -0.12609
C         50.19263        74.21886        -0.04951
C         48.83905        73.63993        -0.15544
C         51.41844        42.09758         0.17704
C         52.63365        44.24648         0.27888
C         51.45730        43.49658         0.10186
C         52.65241        45.66870         0.22075
C         51.42925        46.39243         0.08890
C         52.63525        48.57615         0.30095
C         51.40522        47.78659        -0.08332
C         52.72248        49.97113        -0.27287
C         51.51250        50.67251        -0.62827
C         52.74731        52.79264        -0.89712
C         51.47736        52.04547        -0.85733
C         52.74089        54.24909        -0.66850
C         51.50322        55.00847        -1.12051
C         52.61189        57.13923        -0.26031
C         51.37311        56.40530        -0.54910
C         52.53227        58.52604         0.25854
C         51.26625        59.18578         0.19699
C         52.43537        61.26128         0.95302
C         51.20495        60.59177         0.50670
C         52.43025        62.76912         1.02843
C         51.21522        63.48183         0.63859
C         52.41714        65.62777         0.81159
C         51.24050        64.92182         0.61549
C         52.39320        67.13821         0.96603
C         51.27821        67.65961         0.07594
C         52.47867        69.81677        -0.18636
C         51.27794        69.15781         0.00007
C         52.50268        71.26494        -0.37748
C         51.33578        72.00509        -0.30284
C         52.63340        74.03995         0.20763
C         51.34993        73.45544        -0.09368
C         53.88423        46.39638         0.23985
C         55.13885        48.50667         0.22994
C         53.92298        47.78881         0.19107
C         55.16644        49.91185         0.12804
C         53.94174        50.61350        -0.22711
C         55.20287        52.79275        -0.10997
C         54.03990        52.03413        -0.59656
C         55.14561        54.17611        -0.01983
C         53.89924        54.88397        -0.29323
C         55.00185        56.96185         0.65501
C         53.89545        56.36337        -0.14977
C         54.94775        58.42445         0.95331
C         53.72093        59.19066         0.63172
C         54.94402        61.28394         1.15797
C         53.74655        60.58851         0.88282
C         54.96797        62.73367         1.28716
C         53.73800        63.45434         0.88089
C         54.90958        65.70347         1.23348
C         53.71568        64.94505         0.81105
C         54.90062        67.07158         1.12714
C         53.72338        67.80058         0.61962
C         54.96042        69.71870        -0.41243
C         53.73140        69.04199        -0.01105
C         54.99700        71.12344        -0.59240
C         53.77651        72.01613        -0.72317
C         55.04325        74.06837         0.39733
C         53.84011        73.38581         0.00160
C         56.36636        50.64435         0.27732
C         57.58787        52.77406         0.50535
C         56.39972        52.05409         0.23611
C         57.58709        54.17351         0.59291
C         56.33363        54.90386         0.41393
C         57.43283        56.93515         1.40753
C         56.29192        56.25143         0.68862
C         57.43619        58.44440         1.25998
C         56.22345        59.14738         1.15731
C         57.40061        61.26341         1.50342
C         56.19677        60.56415         1.25340
C         57.35130        62.70087         1.83983
C         56.09544        63.44888         1.61506
C         57.38906        65.64263         1.53460
C         56.07521        64.95990         1.89139
C         57.42145        66.98534         1.27232
C         56.16304        67.74893         1.57367
C         57.41084        69.69930        -0.24719
C         56.20398        69.02078        -0.52764
C         57.43956        71.10445        -0.39765
C         56.24495        71.70267        -0.82813
C         57.60798        74.10156         0.31096
C         56.31278        73.79326        -0.13246
C         58.77557        54.90224         0.84733
C         59.93525        57.03273         1.20753
C         58.76116        56.28330         1.10852
C         59.92255        58.44588         1.37368
C         58.65336        59.15593         1.38821
C         59.89213        61.30308         1.55336
C         58.63863        60.57398         1.51232
C         59.90564        62.69349         1.56509
C         58.67199        63.44086         1.87942
C         59.80722        65.44456         0.88841
C         58.71498        64.96006         1.83972
C         59.82499        66.95335         0.75225
C         58.65705        67.65532         0.81378
C         59.85678        69.64815        -0.28575
C         58.62085        69.14161         0.48058
C         59.86892        71.15449        -0.33971
C         58.69637        71.87050        -0.31128
C         60.02632        73.92662        -0.04558
C         58.76120        73.33544        -0.09728
C         61.12352        59.16453         1.43847
C         62.36686        61.28815         1.52625
C         61.15004        60.58118         1.49792
C         62.41127        62.70359         1.48827
C         61.14551        63.42375         1.42629
C         62.37073        65.55611         1.32967
C         61.12391        64.79387         1.24935
C         62.35819        67.01133         0.90661
C         61.11641        67.54249         0.21782
C         62.41133        69.69212        -0.17844
C         61.13364        69.07852         0.35211
C         62.41787        71.02844        -0.56419
C         61.13693        71.79233        -0.83470
C         62.43058        73.87950        -0.62070
C         61.22873        73.24986        -0.45014
C         63.62383        63.41733         1.42097
C         64.83526        65.56228         1.12606
C         63.65794        64.83301         1.31764
C         64.83732        66.94439         0.74497
C         63.63033        67.64413         0.52594
C         64.87704        69.64000        -0.23757
C         63.63585        68.97755         0.01027
C         64.85766        71.00811        -0.64883
C         63.65014        71.69619        -0.79781
C         64.89572        73.87342        -0.95829
C         63.60898        73.15130        -1.23633
C         66.06557        67.62826         0.48250
C         67.46384        69.57319        -0.12817
C         66.10069        68.93120         0.02253
C         67.44101        71.03088        -0.56691
C         66.13352        71.73159        -0.87850
C         67.32042        73.91827        -0.61659
C         66.09831        73.21501        -0.81634
C         68.57849        71.87363        -0.18806
C         68.51431        73.24948        -0.29668
O         49.83912        70.43655        -1.50813
O         56.28488        73.01574        -1.31602
O         35.72571        56.43263        -1.88198
O         41.06543        50.55375         1.71335
O         43.75756        47.00766        -1.74586
O         49.87095        50.08150        -2.27704
O         37.27890        63.24120         0.79609
O         46.78784        69.59582         1.72331
O         44.98009        66.80522         1.16656
O         39.06515        59.93249         0.67960
O         44.65500        59.21100        -2.83522
O         56.17054        68.75845         2.27718
O         39.42434        67.46471        -2.81254
O         53.61058        57.06118        -1.40654
O         46.07618        63.36803        -2.34184
O         46.93850        50.11131        -2.36656
O         31.28908        68.66620        -1.95712
O         35.70168        67.39417        -2.39356
O         37.98704        57.70873        -2.15049
O         66.97786        71.20365        -1.95146
O         43.56169        39.52103         2.25692
O         48.50130        72.82362        -1.37856
O         54.62345        57.40853         2.01844
O         53.91639        64.11108        -0.41992
O         41.62943        68.76196        -2.80276
O         34.91017        52.61727         1.91652
O         34.10074        64.09400         0.95992
O         42.11103        42.09038         2.16410
O         62.25661        66.67099         2.30672
O         43.24237        70.99872        -2.15134
O         58.03882        62.98624         3.12390
O         46.72018        61.67886         1.16971
O         53.65093        52.35619        -1.97116
O         46.81365        55.52243        -2.78836
O         28.46457        63.89290        -2.12510
O         48.07028        67.27677         1.91318
O         47.05636        72.10538         1.79492
O         41.08173        48.03480         1.68911
O         52.29160        61.98251         2.24453
O         41.16428        54.74316         1.45574
O         56.25365        67.72042        -0.94254
H         55.35870        67.41383        -1.19801
O         49.98837        45.44760         1.70332
H         49.89341        46.33285         2.11328
O         55.89614        65.09272         3.33437
H         56.21367        65.97939         3.60776
O         44.57311        54.10301        -2.67669
H         44.95238        54.82401        -3.23951
O         63.40813        73.16529        -2.68769
H         62.61074        72.60701        -2.86302
O         53.67201        72.33857        -2.14074
H         54.49569        72.82419        -2.37470
O         52.45570        48.79827         1.75581
H         52.63678        47.94473         2.20498
O         59.46448        64.95353        -0.44066
H         60.06857        65.41367        -1.07199
O         44.79105        56.78118        -3.18374
H         44.49627        57.63820        -3.58389
O         37.83217        50.05113        -1.66766
H         37.06231        49.51469        -1.95669
O         59.05986        65.40428         3.16920
H         58.62269        64.78193         3.79594
O         32.49871        66.02872         1.31266
H         32.86883        65.25471         1.80095
O         51.71207        55.21508        -2.55732
H         52.48613        55.82083        -2.64240
O         68.17583        69.46271         1.11712
H         67.55787        69.65632         1.85135
O         32.99477        62.86080        -2.37165
H         32.11444        62.59963        -2.75740
O         41.39731        72.74009        -2.42349
H         41.90415        72.07507        -2.94979
O         28.04734        58.66658         0.44163
H         27.99512        58.62907        -0.53540
O         59.76241        69.20176        -1.67252
H         60.22871        69.87625        -2.22453
O         61.19093        69.39018         1.75836
H         60.27577        69.53209         2.10794
O         48.55531        60.15614         1.78059
H         47.75962        60.68743         2.08238
O         44.89029        55.14556         0.81894
H         44.27423        55.59238         1.43926
O         48.43503        62.40460        -1.92716
H         47.74269        62.48698        -2.62677
O         40.18824        44.10456        -1.58549
H         40.95018        44.60907        -1.94418
O         24.38338        64.93174         1.08557
H         24.77102        64.90981         1.98417
O         52.06806        67.46632         2.33748
H         52.76039        67.09249         2.92105
O         61.24368        67.10812        -1.16330
H         60.64191        67.69086        -1.69892
O         57.18119        56.68818         2.83298
H         56.24763        56.97026         2.99934
O         37.79502        52.94690        -1.69716
H         37.83239        52.02091        -2.04001
O         58.60214        69.83444         1.76582
H         57.75501        69.57530         2.22013
O         30.37095        62.37399        -2.38427
H         29.64732        62.92398        -2.81713
O         50.30401        44.39115        -1.78262
H         50.35016        43.49847        -2.18377
O         46.33339        37.82085        -1.52698
H         46.38539        36.88499        -1.81726
O         45.61964        66.15400        -2.41789
H         45.76602        65.31840        -2.92086
O         41.95167        57.14934         1.27210
H         41.47487        56.56657         1.91001
O         51.60312        67.21581        -1.27726
H         50.99895        67.67011        -1.90214
O         30.57770        75.35955         1.47883
H         30.76809        74.96279         2.35321
O         37.87248        54.11673         1.75232
H         38.15019        54.95148         2.18264
O         60.98946        71.74300        -2.32260
H         60.25585        72.35349        -2.55734
H         23.39541        74.99454         3.18785
H         25.76059        75.07973         2.42991
H         28.09995        75.17113         1.62045
H         30.16216        74.79568        -0.44944
H         32.88178        75.23747         0.63088
H         35.34762        75.23019         0.48127
H         37.78773        75.22316         0.37874
H         40.20166        75.21084         0.46734
H         42.62549        75.30988         0.34987
H         45.09040        75.41472         0.15635
H         47.54943        75.42637         0.15140
H         50.27642        75.29038         0.18811
H         52.64713        75.07088         0.59517
H         54.94430        74.85759         1.15955
H         57.76532        74.94251         1.00390
H         60.10433        74.99152         0.22134
H         62.51836        74.96054        -0.42912
H         64.87780        74.97460        -0.93707
H         67.30644        75.01743        -0.64346
H         22.28554        69.21488         2.17382
H         21.19284        71.27656         3.02467
H         21.30167        73.70417         3.56405
H         24.79961        65.64201        -0.79408
H         23.36790        67.17056         1.29311
H         27.08526        60.94407         0.70661
H         25.71294        63.00117         0.45111
H         29.55721        56.71124         0.89365
H         29.20582        59.49275         1.92067
H         31.92393        52.38976         0.58059
H         30.75767        54.53923         0.77383
H         34.44350        48.04187         0.37545
H         33.21677        50.14979         0.43493
H         36.85269        43.74691         0.64616
H         35.63754        45.89624         0.37493
H         39.32861        39.43145         0.68799
H         38.05582        41.58186         0.66018
H         41.79581        35.15501         0.82681
H         40.56735        37.31178         0.79872
H         45.20184        31.77474         0.57005
H         43.04577        32.99523         0.74405
H         47.35648        33.00500         0.39068
H         48.61374        35.13927         0.43614
H         49.87063        37.28212         0.36030
H         51.11105        39.40939         0.20659
H         52.35069        41.54184         0.36449
H         53.58342        43.71704         0.45394
H         54.83031        45.83403         0.26700
H         56.08628        47.95560         0.33147
H         57.29378        50.09966         0.50956
H         58.51998        52.22091         0.69399
H         59.74037        54.37311         0.80720
H         60.90653        56.52593         1.09581
H         62.07721        58.61582         1.41259
H         63.31160        60.72397         1.54434
H         64.57232        62.85923         1.40501
H         65.80099        65.03608         1.16888
H         67.01408        67.10650         0.67893
H         68.06011        68.99472        -0.88315
H         69.47576        71.38808         0.22119
H         69.40614        73.84831        -0.06147
