         240
 CSIRO Nanostructure Databank - Neutral Graphene Oxide Data Set
C          1.33906         2.09137         1.15089
C          1.31277         3.48282         1.00802
C          2.54635         1.40705         1.20781
C          2.51315         4.22350         0.92272
C          1.32119         6.43154         0.88939
C          1.28480         7.79107         0.60360
C          2.50765         5.68593         0.75818
C          2.42833         8.46222         0.11961
C          1.16550        10.58998        -0.30810
C          1.11156        11.96182        -0.53695
C          2.39102         9.88787        -0.23146
C          2.28042        12.74038        -0.64728
C          1.07832        14.97240        -0.75554
C          1.11433        16.39131        -0.79290
C          2.23037        14.18396        -0.72973
C          2.29565        17.13054        -0.74285
C          2.37693        18.55857        -0.83383
C          3.77392         2.11444         1.10499
C          3.73715         3.52973         0.93817
C          5.01604         1.42202         1.17194
C          5.02359         4.30575         0.98867
C          3.69635         6.37164         0.38073
C          3.63653         7.73964         0.03107
C          4.96598         5.65969         0.31053
C          4.82535         8.39161        -0.62131
C          3.59641        10.59649        -0.45526
C          3.55634        12.03725        -0.61547
C          4.85833         9.89414        -0.49294
C          4.75553        12.71759        -0.80935
C          3.51862        14.90111        -0.63233
C          3.56187        16.40476        -0.56992
C          4.74662        14.16606        -1.03592
C          4.84403        17.12597        -0.77113
C          3.57364        19.23930        -0.77786
C          4.85435        18.57689        -0.72204
C          6.25502         2.07805         0.95099
C          6.24227         3.48305         0.66785
C          7.48012         1.36607         0.90090
C          7.42186         4.12760         0.30439
C          6.12703         6.29128        -0.08258
C          6.15186         7.71457        -0.36425
C          7.37637         5.48474        -0.35797
C          7.33376         8.41722        -0.50848
C          6.06619        10.55184        -0.65000
C          6.06912        12.01152        -1.01028
C          7.35069         9.87090        -0.59216
C          7.19120        12.71858        -0.21780
C          6.04099        14.94614        -1.07011
C          6.01653        16.42226        -0.85448
C          7.18601        14.22151        -0.48140
C          7.29900        17.13728        -0.77153
C          6.06455        19.27071        -0.62313
C          7.32511        18.58919        -0.55013
C          8.70245         2.03968         0.68626
C          8.64912         3.44254         0.42128
C          9.95864         1.34841         0.58930
C          9.89004         4.21871         0.38920
C          8.65342         6.27318        -0.23500
C          8.63072         7.68593        -0.76889
C          9.84057         5.62997        -0.04232
C          9.87752         8.45546        -0.41473
C          8.56391        10.57977        -0.50918
C          8.58117        12.10388        -0.60625
C          9.84456         9.90528        -0.37750
C          9.80456        12.72468         0.07830
C          8.05568        14.98975         0.22851
C          8.47658        16.33530        -0.16132
C          9.84339        13.87478         0.79258
C          9.67156        17.02096         0.34690
C          8.55151        19.17215        -0.24220
C          9.74655        18.41324         0.07376
C         11.16948         1.99980         0.30710
C         11.20738         3.47907         0.34158
C         12.38465         1.33188         0.05313
C         12.38883         4.18858        -0.20073
C         11.10452         6.31167        -0.25632
C         11.07164         7.76007        -0.32802
C         12.29627         5.61653        -0.38905
C         12.33802         8.45645        -0.19357
C         11.05286        10.59784        -0.17886
C         11.12673        12.10679        -0.30032
C         12.30503         9.90085        -0.01359
C         12.26485        12.72464         0.48421
C         11.00403        14.76361         0.98281
C         10.89481        16.29998         0.80597
C         12.28925        14.06294         0.81494
C         12.18294        16.98641         0.57146
C         10.99229        19.08969         0.20019
C         12.21429        18.37751         0.33632
C         13.58661         2.03484        -0.25551
C         13.54722         3.47695        -0.44339
C         14.80257         1.35156        -0.39984
C         14.76255         4.17866        -1.02290
C         13.51571         6.38365        -0.83228
C         13.52815         7.78212        -0.28916
C         14.79504         5.63064        -0.63745
C         14.83480         8.54620        -0.28345
C         13.48967        10.54597         0.31200
C         13.46017        11.94411         0.73324
C         14.72769         9.74771         0.66456
C         14.77009        12.67461         1.01746
C         13.53045        14.79051         0.86172
C         13.43228        16.21538         0.47353
C         14.75310        14.13285         0.85482
C         14.74324        16.96329         0.29309
C         13.48088        19.08113         0.31281
C         14.70167        18.43620         0.37871
C         16.05404         2.02688        -0.62815
C         16.05172         3.46058        -0.74938
C         17.25753         1.33301        -0.66726
C         17.26040         4.19349        -0.72711
C         16.00374         6.30946        -0.39328
C         16.04082         7.68412        -0.03208
C         17.24405         5.58859        -0.54145
C         17.26815         8.29152         0.52462
C         16.01796        10.56807         0.68575
C         16.03529        11.91850         0.83458
C         17.27080         9.77270         0.84862
C         17.29329        12.68957         1.18572
C         16.01609        14.83941         0.70963
C         16.00648        16.24763         0.55743
C         17.24992        14.15153         0.80347
C         17.21249        16.97728         0.62271
C         15.96280        19.11719         0.45721
C         17.16788        18.43757         0.53464
C         18.54566         1.99410        -1.06631
C         18.52921         3.49900        -0.87182
C         19.76682         1.42301        -0.36255
C         19.71747         4.19496        -0.89903
C         18.47974         6.42763        -0.68729
C         18.58939         7.50998         0.40494
C         19.75840         5.62712        -0.74833
C         19.80966         8.37419         0.08424
C         18.57164        10.53203         0.91232
C         18.56329        11.98285         0.77497
C         19.88486         9.77529         0.50583
C         19.75407        12.70307         0.60433
C         18.46708        14.86744         0.74395
C         18.43703        16.28526         0.71712
C         19.74162        14.15447         0.63974
C         19.71178        17.05254         0.94714
C         18.41822        19.14630         0.45452
C         19.62864        18.50006         0.51240
C         20.92556         2.09160        -0.39309
C         21.00661         3.42362        -1.11098
C         22.23412         4.22900        -0.78041
C         20.95228         6.31575        -0.67310
C         20.93099         7.77398        -0.47008
C         22.20236         5.57377        -0.65243
C         22.07860         8.57521        -0.78768
C         21.00846        10.60439         0.06269
C         20.98308        12.00881         0.27012
C         22.09163         9.93465        -0.57789
C         22.16416        12.78985         0.08657
C         20.93261        14.87479         0.43508
C         20.94408        16.33224         0.44420
C         22.14485        14.15605         0.18807
C         22.06078        17.07646         0.14574
C         20.86169        19.20112         0.27665
C         22.03316        18.51042         0.12155
O         13.97367        12.13421         2.12179
O         19.49194        10.00481         1.90882
O         10.71237         4.03481         1.60381
O          8.67474        14.42144         1.34572
O          5.39722        14.54814        -2.33351
O          8.32266        16.56281        -1.61726
O         17.11324         8.78454         1.92216
O         10.88895        15.63169         2.14803
O         14.04195        16.42197        -0.87549
O          3.65379        15.58679         0.66667
O         14.98638         9.07049        -1.65590
H         14.26239         9.72107        -1.79708
O         17.33114        12.69730         2.65438
H         17.50414        11.77965         2.95719
O          7.28698         5.16529        -1.79581
H          7.49957         6.00017        -2.28288
O         14.50351         9.24756         2.00142
H         14.38429        10.03314         2.58200
O         13.38974         6.57155        -2.31580
H         14.05270         7.26387        -2.55085
O          5.20095         4.64205         2.42359
H          4.37386         5.07753         2.72285
O         19.87333        17.09918         2.41362
H         20.71043        17.57733         2.59469
O         18.82740         6.84944         1.65801
H         18.55939         7.48292         2.36404
O         18.71161         1.72211        -2.49443
H         19.59694         2.08828        -2.75077
O          4.60363         8.17057        -2.07012
H          5.34390         8.60550        -2.54650
O         14.60115         4.12928        -2.49486
H         14.01404         4.89157        -2.73604
O         11.46273        12.38497        -1.69661
H         10.60072        12.39767        -2.18831
O         18.33512         7.16343        -1.94329
H         18.12043         6.51788        -2.64906
O          8.83409        12.42715        -2.00708
H          8.03107        12.14074        -2.52233
O          6.90849        12.43529         1.16095
H          7.49255        13.00708         1.71262
O          8.65351         7.54746        -2.25355
H          9.55565         7.24900        -2.50256
O         21.10764         3.10642        -2.54991
H         21.18520         3.95767        -3.03086
O          6.32602        12.05547        -2.45576
H          6.03338        12.95508        -2.76636
H          0.39222         1.53788         1.22110
H          0.34140         3.99241         0.95814
H          2.56212         0.31495         1.33221
H          0.39685         5.94049         1.22252
H          0.33710         8.33019         0.73403
H          0.21792        10.04743        -0.18993
H          0.12782        12.44933        -0.58762
H          0.09018        14.49050        -0.78150
H          0.15800        16.92888        -0.87852
H          1.43948        19.12881        -0.91839
H          5.00758         0.33477         1.34086
H          3.56481        20.33913        -0.80261
H          7.47744         0.27836         1.06296
H          6.05037        20.36894        -0.55430
H          9.95100         0.25001         0.65824
H          8.61706        20.26828        -0.16422
H         12.41471         0.23274         0.10093
H         11.02475        20.17836         0.04731
H         14.81742         0.25813        -0.27662
H         13.45388        20.18139         0.29680
H         17.25194         0.23672        -0.56583
H         15.96857        20.21735         0.41885
H         19.69346         0.43746         0.12230
H         18.39048        20.23030         0.26051
H         21.83592         1.68288         0.07116
H         23.19472         3.69354        -0.74061
H         23.13619         6.12465        -0.46676
H         22.94533         8.09874        -1.26635
H         22.96746        10.51049        -0.90656
H         23.12154        12.28722        -0.10495
H         23.08835        14.70414         0.06820
H         23.00773        16.59031        -0.12659
H         20.83570        20.29350         0.14898
H         22.96619        19.04836        -0.09670
