         314
 CSIRO Nanostructure Databank - Neutral Graphene Oxide Data Set
C         30.37633        57.08195         0.08351
C         30.32085        58.43220        -0.31983
C         29.08602        59.07784        -0.61941
C         30.25735        61.13476        -1.16450
C         29.06829        60.40373        -1.03050
C         32.88925        52.96548         1.10650
C         32.87609        54.38066         0.85318
C         31.65064        55.05490         0.65273
C         32.83150        57.18979         0.23449
C         31.60815        56.43573         0.33509
C         32.76809        58.55936        -0.09341
C         31.53807        59.18010        -0.42907
C         32.72170        61.27542        -1.05013
C         31.50708        60.54997        -0.86739
C         35.34126        48.65884         1.60786
C         35.32378        50.07509         1.39741
C         34.10184        50.81397         1.37446
C         35.35329        52.95684         1.21965
C         34.06826        52.21852         1.21497
C         35.36582        54.44488         0.99491
C         34.08942        55.11877         0.71726
C         35.31082        57.18472         0.10052
C         34.10178        56.50532         0.37503
C         35.33676        58.63537        -0.02123
C         33.98165        59.38492        -0.09903
C         35.19973        61.36587        -0.95168
C         33.96776        60.71028        -0.74704
C         37.83010        44.37974         2.02990
C         37.80514        45.75006         1.84542
C         36.57230        46.49742         1.85741
C         37.77689        48.51236         1.13829
C         36.51814        47.87301         1.58481
C         37.77632        50.01561         0.93363
C         36.55151        50.77706         1.18407
C         37.77526        52.84902         0.65031
C         36.60461        52.19009         1.01238
C         37.73411        54.21063         0.05284
C         36.63702        55.09985         0.52033
C         37.70787        57.05069        -0.87610
C         36.62844        56.50337         0.02606
C         37.39896        58.37965        -1.33052
C         36.45040        59.23459        -0.75172
C         37.64053        61.44755        -1.03602
C         36.45229        60.68589        -0.95595
C         40.18618        40.28591         0.61735
C         40.22334        41.59496         1.16604
C         39.05097        42.26137         1.52218
C         40.35186        44.34453         1.83917
C         39.09910        43.59182         2.20905
C         40.32041        45.76489         1.74688
C         39.07377        46.46292         1.68859
C         40.27578        48.55605         1.24881
C         39.06526        47.83716         1.39918
C         40.22583        49.98037         0.98119
C         39.06708        50.70806         0.92060
C         40.21867        52.84195         0.06015
C         39.10667        52.22246         0.88009
C         40.22132        54.11998        -0.40844
C         38.94301        54.87277        -0.55278
C         40.17571        56.71689        -1.63899
C         38.94076        56.31700        -1.01857
C         40.32879        59.02217        -1.99520
C         39.12453        59.66747        -1.87765
C         40.14379        61.51773        -0.71384
C         38.96193        60.91124        -1.19533
C         42.42703        36.34916        -1.28299
C         42.51171        37.57269        -0.57711
C         41.33072        38.26814        -0.19414
C         42.64589        40.16811         0.66745
C         41.37294        39.56962         0.35387
C         42.72368        41.50201         1.11462
C         41.51862        42.23406         1.34217
C         42.83446        44.30564         1.61569
C         41.55613        43.62987         1.60997
C         42.83257        45.77843         1.83387
C         41.54347        46.49584         1.63298
C         42.79529        48.63632         1.35656
C         41.52160        47.87464         1.41422
C         42.75663        50.03841         0.85029
C         41.44917        50.62111         0.45224
C         42.70107        52.61814        -0.51976
C         41.43358        52.02534        -0.03843
C         42.71682        53.98859        -1.06639
C         41.54449        54.84802        -0.56291
C         42.68436        56.69520        -1.67026
C         41.44481        56.10234        -1.38149
C         42.75098        58.92454        -1.58134
C         41.51569        59.60002        -1.48465
C         42.62002        61.39075        -0.30458
C         41.41076        60.86973        -0.81731
C         44.66162        33.90702        -3.02738
C         43.51288        34.49058        -2.49605
C         44.86516        36.32664        -1.56560
C         43.58840        35.71061        -1.76735
C         44.97748        37.52715        -0.79343
C         43.79400        38.11822        -0.26400
C         45.22204        40.01369         0.78550
C         43.85131        39.34261         0.55044
C         45.20157        41.47124         0.95005
C         44.01547        42.17155         1.21143
C         45.33277        44.29600         1.77843
C         44.01881        43.60337         1.45938
C         45.37310        45.77925         1.44646
C         44.13295        46.53656         1.69901
C         45.26986        48.61329         0.95461
C         44.11320        47.96294         1.29459
C         45.30870        50.00247         0.40782
C         43.97218        50.64596         0.23314
C         45.56670        52.65779        -1.17985
C         43.69317        51.71248        -0.75555
C         45.37891        54.05573        -1.07724
C         44.05820        54.70986        -1.30863
C         45.08189        56.99810        -0.89755
C         43.98160        56.20189        -1.22710
C         45.08663        58.46725        -0.69746
C         43.89730        59.30308        -0.87748
C         45.02932        61.25948         0.07474
C         43.82711        60.64707        -0.32972
C         45.90552        34.51717        -2.87338
C         47.26734        36.40470        -2.03907
C         46.02828        35.73561        -2.14964
C         47.38692        37.61033        -1.31681
C         46.25831        38.13849        -0.62860
C         47.79622        40.02989         0.23632
C         46.45307        39.31336         0.24587
C         47.76713        41.46732         0.66546
C         46.47246        42.19920         0.73539
C         47.83574        44.31046         1.40920
C         46.52590        43.62840         1.13828
C         47.82785        45.76106         1.20094
C         46.54681        46.44371         1.20665
C         47.82123        48.58286         0.68890
C         46.58457        47.95527         1.29374
C         47.81126        49.83897         0.11920
C         46.52375        50.40992        -0.49310
C         47.76481        52.71365        -0.27857
C         46.62842        51.95189        -0.61708
C         47.72548        54.14057        -0.38181
C         46.50378        54.81217        -0.71554
C         47.63364        57.03389        -0.34874
C         46.40989        56.29507        -0.78099
C         47.46311        58.39123         0.28319
C         46.23566        59.12309        -0.21634
C         47.45264        61.25191         0.24906
C         46.24247        60.54804         0.03622
C         48.61234        38.35309        -1.39186
C         49.96902        40.34637        -1.14141
C         48.83446        39.56283        -0.74569
C         50.48793        41.39010        -0.35518
C         48.92802        42.09872         0.97926
C         50.37617        44.29319         0.86784
C         49.13420        43.54800         1.22630
C         50.29129        45.68570         1.12412
C         49.04216        46.41229         1.16919
C         50.30461        48.39680         0.30544
C         49.12054        47.93508         1.13727
C         50.27414        49.82917        -0.13463
C         49.02488        50.59795        -0.02770
C         50.21658        52.78012        -0.00912
C         49.02011        52.01790        -0.06970
C         50.17508        54.19592         0.17274
C         48.92880        54.88168        -0.06970
C         50.04058        57.05000         0.20213
C         48.87250        56.28924         0.00262
C         49.96787        58.49457         0.29355
C         48.76312        59.17539         0.26547
C         49.90493        61.37904         0.25949
C         48.72451        60.62279         0.28507
C         51.24713        42.49752        -0.73099
C         52.68816        44.32972        -0.29286
C         51.47211        43.70049         0.05482
C         53.27678        45.46562         0.34442
C         51.50203        46.49239         1.14463
C         52.89321        48.39535         0.19236
C         51.60664        47.76482         0.64585
C         52.86069        49.84032        -0.26527
C         51.56075        50.56025        -0.04162
C         52.74415        52.63925        -0.68972
C         51.51377        52.05815        -0.04161
C         52.65518        54.43354         0.86085
C         51.35471        54.98093         0.46478
C         52.52023        57.15303         0.25242
C         51.29900        56.39078         0.32050
C         52.51000        58.54390         0.33733
C         51.22054        59.21446         0.58500
C         52.46899        61.45131         0.34481
C         51.19190        60.77763         0.55178
C         54.22746        46.35901        -0.08113
C         55.42258        48.60521         0.15597
C         54.24906        47.74680         0.56937
C         55.35310        49.98195         0.02588
C         54.09142        50.66669        -0.14149
C         55.19722        52.87980         0.02749
C         54.03530        52.05514        -0.20088
C         55.12059        54.29828         0.23828
C         53.85355        54.99717         0.37133
C         55.07838        57.23782         0.22827
C         53.77607        56.42510         0.02132
C         54.94859        58.65563         0.54210
C         53.72483        59.30841         0.44571
C         54.91158        61.48805         0.50605
C         53.68332        60.77512         0.47603
C         56.53058        50.81223        -0.00114
C         57.75734        52.95881        -0.02177
C         56.46151        52.18848         0.02807
C         57.61999        54.42692         0.29294
C         56.34245        55.06977         0.30809
C         57.49092        57.20154         0.79596
C         56.32016        56.48820         0.51064
C         57.43409        58.63236         1.17778
C         56.13393        59.39211         1.02625
C         57.35335        61.55701         0.72906
C         56.15426        60.85836         0.77388
C         58.78431        55.15270         0.48144
C         59.96384        57.30362         0.78418
C         58.76440        56.55352         0.73396
C         59.97435        58.71206         0.89389
C         58.71508        59.40658         1.22372
C         59.88994        61.57442         0.53122
C         58.65742        60.94537         1.00133
C         61.13556        59.47361         0.69863
C         61.07486        60.87637         0.50447
O         56.58016        58.91306         2.34098
O         48.60053        43.88575         2.56655
O         47.47319        39.07790         1.28954
O         46.34622        43.30771        -0.27285
O         43.56794        46.24042         3.04227
O         34.77549        59.36138         1.11498
O         47.34521        56.91405        -1.77000
O         44.91321        51.08871         1.30275
O         42.75506        57.83329        -2.46361
O         52.84926        48.76558        -1.23343
O         37.66407        49.06969        -0.20882
O         43.21211        54.20212        -2.40293
O         41.22249        50.82877        -0.97790
O         51.17988        59.97851         1.80594
O         54.55086        56.88840        -1.10644
O         37.13931        56.15537         1.40346
O         52.63456        45.78787         1.57248
O         50.14728        48.72303        -1.09671
O         40.25444        57.74457        -2.59129
O         52.66578        53.32994        -1.69487
O         46.40103        49.80067        -1.72285
O         44.58127        39.23786         1.83139
O         35.47261        53.89299         2.35829
O         42.82917        49.80016         2.27784
O         44.57359        51.90859        -1.80637
O         37.94782        54.14228        -1.40200
O         58.79862        60.31712         2.33199
O         51.71052        51.30284         1.21826
O         50.09695        41.34179         1.00274
O         38.05137        58.95951        -2.43801
O         58.75004        52.35131         0.81553
H         58.43300        52.38283         1.74131
O         39.20534        43.32349         3.67357
H         39.38618        44.18149         4.11391
O         52.74705        53.48392         1.81120
H         51.86929        53.16140         2.10220
O         47.18980        58.10797         1.69819
H         47.18326        58.96316         2.17868
O         45.50403        44.20753         3.21593
H         44.80514        44.77345         3.62303
O         54.36854        47.67583         2.00301
H         53.81346        46.92030         2.31412
O         49.43963        48.37952         2.48388
H         48.60966        48.30021         3.01472
O         46.75569        48.22556         2.74265
H         45.94226        47.92302         3.20356
O         41.90666        55.26285         0.79701
H         41.65608        54.55045         1.42419
O         39.50154        52.63494         2.25900
H         38.69972        52.60717         2.82557
H         29.44216        56.50723         0.17242
H         28.14771        58.51325        -0.52310
H         30.22065        62.17902        -1.50650
H         28.10957        60.88869        -1.26209
H         31.92103        52.44471         1.15569
H         30.70737        54.49391         0.72590
H         32.67519        62.29562        -1.45915
H         34.38551        48.16154         1.83412
H         33.15059        50.26615         1.45202
H         35.18909        62.42766        -1.24007
H         36.88178        43.83876         2.17241
H         35.64357        45.95831         2.09929
H         37.54694        62.53310        -0.87410
H         39.21420        39.80931         0.42273
H         38.07740        41.77643         1.35742
H         40.07986        62.47202        -0.17176
H         41.43901        35.91191        -1.48748
H         40.35387        37.81013        -0.40802
H         42.63788        62.40119         0.12857
H         44.58375        32.96406        -3.58645
H         42.53280        34.01441        -2.64119
H         45.02876        62.31578         0.37985
H         46.80422        34.06252        -3.31366
H         48.15207        35.99137        -2.54553
H         47.40287        62.34548         0.35460
H         49.39349        37.96569        -2.06333
H         50.42398        40.13257        -2.12075
H         49.85668        62.45116         0.01955
H         51.77276        42.44394        -1.69759
H         53.26175        43.86714        -1.11110
H         52.46933        62.53573         0.15808
H         54.72021        46.21749        -1.05336
H         56.41743        48.13991         0.23813
H         54.88819        62.58322         0.40190
H         57.51955        50.33099         0.02550
H         58.15340        52.87832        -1.07431
H         57.33864        62.61356         0.41987
H         59.75091        54.63050         0.43284
H         60.92022        56.77646         0.64942
H         59.85190        62.61679         0.18271
H         62.09173        58.95520         0.53892
H         61.99706        61.39901         0.21237
