         268
 CSIRO Nanostructure Databank - Neutral Graphene Oxide Data Set
C        -11.21649         0.44394        -0.02666
C        -10.00134         1.22187        -0.17121
C         -8.74159         0.52060         0.00888
C         -7.53533         1.36538         0.09973
C         -6.22952         0.76981         0.56484
C         -4.93666         1.64994         0.48870
C         -3.66170         0.82101         0.32826
C         -2.46630         1.48642        -0.25353
C         -1.23393         0.72021        -0.60436
C         -0.00143         1.46587        -0.33188
C          1.18599         0.70826         0.14229
C          2.53762         1.31967        -0.08408
C          3.75082         0.61162         0.44455
C          5.00369         1.38575         0.87325
C          6.24563         0.56493         0.54557
C          7.49259         1.28129         0.14808
C          8.79383         0.55487         0.24854
C         10.02344         1.26279        -0.19684
C         11.06231         0.43128        -0.86034
C        -10.04276         2.58469        -0.34944
C         -8.86257         3.41086        -0.79858
C         -7.53342         2.63348        -0.70060
C         -6.26392         3.40031        -0.90087
C         -4.94399         2.86316        -0.47602
C         -3.78984         3.55039        -0.79984
C         -2.49404         2.92108        -0.60689
C         -1.27819         3.56129        -0.64980
C         -0.04208         2.83012        -0.35849
C          1.23769         3.54085        -0.11925
C          2.51215         2.80095        -0.52063
C          3.73333         3.57467        -0.03899
C          4.99491         2.87293         0.36601
C          6.25094         3.55166        -0.15456
C          7.51980         2.75990        -0.17861
C          8.83102         3.47309        -0.17507
C          9.97086         2.75244        -0.32510
C         -8.66628         4.72685        -0.06329
C         -7.51088         5.43768        -0.19663
C         -6.41723         4.90694        -1.13557
C         -5.08793         5.68240        -1.05925
C         -3.80856         4.92678        -1.47017
C         -2.49221         5.75590        -1.24850
C         -1.22588         5.02968        -0.89111
C         -0.13590         5.75004        -0.09606
C          1.22842         5.02850        -0.09062
C          2.48263         5.76896        -0.47571
C          3.79109         5.03471        -0.45223
C          5.01632         5.83169         0.00100
C          6.33760         5.10184        -0.50986
C          7.56711         5.76149         0.09580
C          8.88609         5.00212        -0.01388
C         -7.34255         6.69283         0.51014
C         -6.19089         7.42969         0.49746
C         -5.02164         6.97408        -0.30045
C         -3.69256         7.62903        -0.04124
C         -2.59381         7.29580        -1.03668
C         -1.26143         7.98914        -0.66170
C         -0.00284         7.22072        -0.44674
C          1.20465         7.90441         0.17644
C          2.48091         7.27801        -0.37085
C          3.75865         8.05028        -0.39142
C          5.08257         7.30541        -0.38386
C          6.33709         7.94754         0.12894
C          7.51663         7.07313         0.43510
C         -6.10072         8.72140         1.15566
C         -4.97448         9.47269         1.15918
C         -3.68886         8.96938         0.61892
C         -2.64240         9.98239         0.16833
C         -1.27756         9.35996        -0.05729
C         -0.13920        10.00124         0.30372
C          1.22844         9.47768        -0.11382
C          2.46791         9.90020         0.61604
C          3.79808         9.64438        -0.02323
C          5.01081         9.95295         0.82784
C          6.16532         9.26050         0.79851
C        -11.16753        -0.89384         0.21324
C         -9.91693        -1.59234         0.40796
C         -8.68568        -0.81240         0.38588
C         -7.40956        -1.44429         0.68631
C         -6.22568        -0.72770         0.71561
C         -4.91486        -1.44556         0.78616
C         -3.68413        -0.68507         0.42280
C         -2.61551        -1.38466        -0.36322
C         -1.26557        -0.74524        -0.44593
C         -0.22466        -1.52279         0.35309
C          1.07845        -0.73404         0.55200
C          2.33680        -1.52796         0.89099
C          3.65316        -0.80205         1.00502
C          4.96673        -1.56322         1.16945
C          6.29799        -0.85384         1.10498
C          7.69336        -1.57879         1.08506
C          8.61752        -0.92789         0.04208
C          9.69587        -1.66782        -0.68577
C         10.90535        -0.89002        -1.08327
C         -9.91075        -2.96215         0.60216
C         -8.69951        -3.70113         0.80750
C         -7.43900        -2.90534         1.14135
C         -6.15840        -3.68429         0.76625
C         -4.87005        -2.95434         0.62615
C         -3.60160        -3.68261         0.13069
C         -2.61773        -2.83776        -0.64604
C         -1.27593        -3.52082        -0.87379
C         -0.03810        -2.89243        -0.29827
C          1.00644        -3.79905         0.34664
C          2.30402        -3.05136         0.78653
C          3.61306        -3.78858         0.80110
C          4.93641        -3.06817         1.02975
C          6.24710        -3.75723         0.82100
C          7.63543        -3.11869         0.90177
C          8.70879        -3.77459         0.06296
C          9.77396        -3.13528        -0.46885
C         -8.67411        -5.07202         0.92150
C         -7.35285        -5.78407         1.15257
C         -6.37925        -5.06493         0.16955
C         -5.08586        -5.81215        -0.19997
C         -3.83394        -5.04399        -0.52045
C         -2.54674        -5.80361        -0.77597
C         -1.31287        -5.00128        -1.27209
C          0.05472        -5.71325        -1.09342
C          1.25258        -5.09090        -0.44574
C          2.36618        -6.01092         0.07261
C          3.68367        -5.25487         0.41713
C          5.02587        -5.89402         0.26593
C          6.33260        -5.11216         0.09229
C          7.53202        -5.89630         0.63527
C          8.66620        -4.96943         0.99500
C         -7.32878        -7.27636         0.94837
C         -6.15997        -7.93824         0.64659
C         -4.96047        -7.24349         0.18692
C         -3.73165        -7.88027         0.22839
C         -2.50066        -7.22976        -0.31648
C         -1.17850        -7.82981         0.20788
C         -0.07507        -7.20968        -1.33378
C          1.48890        -8.36371        -1.10296
C          2.58770        -7.28326        -0.78652
C          3.88667        -7.99792        -0.62453
C          5.16177        -7.25651        -0.32168
C          6.44251        -7.99061        -0.09494
C          7.56623        -7.24695         0.55690
C         -6.04857        -9.37260         0.83872
C         -4.84349       -10.00592         0.81090
C         -3.61470        -9.29160         0.54652
C         -2.39458        -9.96553         0.50667
C         -1.12663        -9.33698         0.25505
C          0.06072       -10.04562         0.24603
C          1.35498        -9.47427        -0.07420
C          2.55254       -10.09640         0.17326
C          3.87961        -9.36279         0.07898
C          5.16094       -10.12183        -0.21036
C          6.34773        -9.48036        -0.18673
O          1.37130         4.25045         1.15599
O         -0.30200         7.72363        -1.76682
O          2.83824        -1.03697         2.17319
O         -3.21363         7.75437         1.32206
O         -2.75388        -6.91542        -1.70865
O         -2.82156        -4.03473         1.30572
H         -3.44042        -4.06666         2.07608
O          5.64494        -1.07960         2.37270
O         -3.09610        10.53452        -1.07751
H         -3.13688         9.80312        -1.74054
O          6.70923         2.91545        -1.38534
O         -7.57415        -2.92876         2.54861
O         -1.03998        -0.17310        -1.75862
O         -7.13087         1.45770         1.49778
O          3.48081        -7.46209        -1.92317
O         -5.23228        -3.62923         1.88341
O         -6.93994        -5.58117         2.51753
H         -7.13847        -4.62968         2.76961
O          6.63252         0.57711        -0.83432
O          3.43567         0.57991        -0.98188
O         -4.62350         3.60873        -3.28739
H         -5.54824         3.97317        -3.36021
O          8.20789        -3.97333         2.02526
O          2.79253        -3.65364         2.01025
O          1.51800        -8.83485        -2.27369
O         -1.47612         5.44996        -2.25564
O          6.00973         7.83183        -1.32209
O          4.12055         3.52939         1.36762
O          4.38094        -5.93313         1.54660
O         -6.86880         5.08701        -2.50270
O          8.42790        -1.27171        -1.34685
O         -2.61824         1.33401         1.22477
O          1.10527        -5.05097        -1.88321
O          5.63786        -3.75907         2.11751
O         -3.83046         4.76254        -2.94988
H         -6.70972         6.03587        -2.72265
O          2.51588         2.80013        -1.95139
H          3.20231         2.16862        -2.26437
O         -1.48499        -4.97743        -2.71954
H         -0.86560        -4.29193        -3.06462
O          5.02020         5.91799         1.42693
H          4.71254         5.06520         1.82589
O         -5.27504         6.95264        -1.75563
O         -2.95913         7.89155        -2.29725
H         -2.35390         7.51910        -2.97712
O         -0.28229        -2.84768        -1.72015
O          0.92333         0.33183         1.53558
O          4.04188        -8.88131         1.47603
H          4.06214        -9.66583         2.06504
O         -3.10957        -1.92251        -1.64667
O          1.87350        -6.50945         1.33170
H          2.65108        -6.82087         1.85559
O          3.00457         7.87269        -1.59474
O         -4.76359        -5.34508        -1.58313
O         -6.83107         2.54955        -1.97280
O          6.38759         5.25447        -1.85656
O          3.15199         5.33691        -1.69934
O          6.10798        -7.35484        -1.40409
O         -3.92894        -1.06470         1.80558
O          1.36628         9.76258        -1.50591
H          0.73833         9.18646        -2.00862
O         -0.65019        -7.17689         1.15095
O          6.51353        -4.84249        -1.24687
O          9.76584         0.92843         1.24870
O         -9.16777         3.70238        -2.17923
H         -8.33470         4.01330        -2.61259
O          5.00757         1.44220         2.30347
H          4.23802         1.96822         2.61149
O         -7.13903        -4.88918        -1.04958
H         -6.50213        -4.90263        -1.80332
O          3.98335        10.30186        -1.25947
H          3.18184        10.13207        -1.81181
O          9.66995         5.32157         1.13759
H         10.48677         4.78240         1.12752
O          0.34819        -4.21124         1.56467
H          0.83388        -4.99572         1.92912
O          1.17283         7.73073         1.59592
H          0.44212         7.10208         1.83138
O         -0.61023        -7.45438        -2.47824
H         -0.90624        -6.62501        -2.95364
O         -4.86822         2.31931         1.76599
H         -3.95788         2.18763         2.12463
O         -0.83251        -1.71865         1.63609
H         -0.40893        -2.48931         2.08382
O         -0.62213         5.76303         1.27507
H         -0.21373         4.98256         1.73118
O          8.28953        -1.29859         2.35066
H          7.66773        -1.60408         3.04731
H         11.71866        -1.45087        -1.56985
H         11.98316         0.93287        -1.19618
H         10.94165         3.27560        -0.37859
H          9.40792         5.40589        -0.93578
H          8.42317         7.57190         0.81398
H          7.01174         9.61712         1.40659
H          4.97301        10.89173         1.40173
H          2.42051         9.80768         1.71539
H         -0.20931        10.99226         0.77899
H         -2.56609        10.82402         0.90028
H         -4.98169        10.47623         1.60945
H         -7.01807         9.11224         1.62051
H         -8.19928         7.05114         1.10157
H         -9.47864         5.12626         0.56427
H        -11.02417         3.08129        -0.39936
H        -12.18227         0.95578        -0.14556
H        -12.09796        -1.47661         0.28187
H        -10.86597        -3.51038         0.59422
H         -9.59308        -5.65214         0.73758
H         -8.19395        -7.86324         1.29633
H         -6.96295        -9.93556         1.07662
H         -4.78447       -11.08777         1.00018
H         -2.39742       -11.05326         0.68298
H          0.02718       -11.12228         0.48714
H          2.56827       -11.02435         0.77216
H          5.12478       -11.21321        -0.34978
H          7.28114       -10.04762        -0.32940
H          8.45723        -7.81225         0.87510
H          9.61842        -5.47190         1.27981
H         10.69044        -3.67746        -0.74445
