         404
 CSIRO Nanostructure Databank - Neutral Graphene Oxide Data Set
C          1.15813         3.42655         0.61141
C         -0.03835         4.09475         0.47044
C          1.11135         6.17806        -0.08823
C         -0.06295         5.46135         0.10599
C          1.08437         7.55845        -0.67055
C         -0.12424         8.40965        -0.58952
C          1.09112        10.52680        -1.12649
C         -0.11461         9.75073        -0.75258
C          1.15441        12.00927        -1.01633
C         -0.03832        12.75559        -0.96456
C          1.19971        14.84498        -1.20591
C         -0.02152        14.13509        -1.05420
C          1.16869        16.28157        -1.28428
C          0.00182        17.04001        -1.56590
C          1.07058        19.15582        -0.84025
C         -0.00824        18.42166        -1.51397
C          1.12748        20.62713        -0.68639
C          0.07606        21.50317        -1.00334
C          1.10293        23.34785         0.21418
C          0.10182        22.86229        -0.64546
C          1.11038        24.69559         0.95208
C         -0.02167        25.58211         0.48751
C          1.20373        27.72356         0.55013
C          0.01364        26.93576         0.38508
C          1.21621        29.12840         0.45013
C         -0.00359        29.88329         0.38086
C          1.20050        32.00375         0.57702
C         -0.01159        31.24957         0.46999
C          1.19526        33.41283         0.85782
C         -0.00344        34.17756         1.02981
C          1.22295        36.23580         1.53942
C          0.01302        35.53390         1.30892
C          1.28346        37.62135         1.80643
C          3.62939         3.46016         0.59764
C          2.39208         4.12121         0.44365
C          3.61143         6.21904         0.06310
C          2.37220         5.51674         0.11289
C          3.57805         7.67842        -0.15221
C          2.39637         8.28587        -0.83817
C          3.64542        10.55114        -0.90742
C          2.40646         9.77093        -1.11279
C          3.66214        11.93151        -1.00983
C          2.40566        12.69324        -1.10172
C          3.73895        14.84404        -1.39281
C          2.42462        14.10667        -1.21028
C          3.67264        16.27430        -0.89137
C          2.45644        17.05620        -1.29720
C          3.62164        19.13497        -0.37008
C          2.35422        18.39208        -0.58677
C          3.58934        20.51632        -0.04775
C          2.27569        21.16480        -0.03682
C          3.93463        23.46023         0.80354
C          2.08548        22.41773         0.57052
C          3.80075        24.85518         0.71657
C          2.47363        25.49644         1.01952
C          3.74110        27.76708         0.73539
C          2.44981        27.00687         0.90597
C          3.70062        29.20016         0.39919
C          2.46061        29.87268         0.42567
C          3.67131        32.02936         0.39595
C          2.43706        31.30802         0.45367
C          3.64415        33.43355         0.63250
C          2.44308        34.08064         0.97680
C          3.78117        36.24776         1.49278
C          2.46870        35.46448         1.49119
C          3.73442        37.71934         1.57041
C          2.48157        38.33237         1.83622
C          6.09240         3.47376         0.63219
C          4.84938         4.15658         0.52337
C          6.10744         6.29195         0.33170
C          4.84084         5.57908         0.31187
C          6.13189         7.68056         0.04116
C          4.87115         8.42533        -0.16056
C          6.19710        10.51770        -0.75068
C          4.90059         9.77130        -0.81372
C          6.14485        11.98150        -0.67794
C          4.92313        12.65958        -0.85622
C          6.11434        14.78441        -0.61422
C          4.93495        14.08485        -0.86215
C          6.14029        16.26545        -0.89984
C          4.82256        16.96476        -0.63817
C          6.05949        19.13035        -0.37637
C          4.82985        18.41042        -0.45135
C          6.02518        20.54761        -0.29525
C          4.83326        21.25467        -0.02395
C          6.08481        23.46267        -0.22245
C          4.94224        22.71519         0.15824
C          6.12598        24.87329        -0.07312
C          4.94944        25.56548         0.30165
C          6.19680        27.76542        -0.06993
C          5.02426        27.02554         0.43909
C          6.16023        29.16905        -0.00621
C          4.93795        29.88389         0.20831
C          6.12891        32.03289         0.05458
C          4.91317        31.32839         0.19279
C          6.12475        33.50355        -0.02062
C          4.84425        34.24653         0.36283
C          6.11008        36.37336         0.71471
C          4.95885        35.63270         0.86301
C          6.16070        37.77299         1.11760
C          4.93130        38.42789         1.42000
C          8.50644         3.29293         0.68440
C          7.32896         4.13139         0.71527
C          8.52852         6.36649         0.69042
C          7.32983         5.59527         0.64030
C          8.56257         7.73004         0.28700
C          7.35055         8.40735        -0.01998
C          8.58961        10.52918        -0.14721
C          7.39388         9.81349        -0.26570
C          8.59168        11.97037        -0.23133
C          7.35848        12.67804        -0.42062
C          8.57370        14.79308        -0.14687
C          7.34624        14.09933        -0.38143
C          8.55239        16.25608         0.07751
C          7.28087        16.98664        -0.21034
C          8.54992        19.13359        -0.22613
C          7.31925        18.45060        -0.33613
C          8.57041        20.54967        -0.35469
C          7.29551        21.24597        -0.57406
C          8.58792        23.44284        -0.38957
C          7.30951        22.75619        -0.62883
C          8.56726        24.88444        -0.36879
C          7.36683        25.61144        -0.31740
C          8.60228        27.75987        -0.78280
C          7.39558        27.05374        -0.38398
C          8.64331        29.19356        -0.71961
C          7.49827        29.86579         0.06507
C          8.54757        32.10585        -0.15798
C          7.37607        31.36508        -0.08165
C          8.56528        33.52572         0.07824
C          7.38633        34.22877         0.15781
C          8.64058        36.44886         0.50147
C          7.35440        35.71175         0.26262
C          8.64467        37.83784         1.02207
C          7.38729        38.46446         1.21975
C         11.07508         3.25513         0.89867
C          9.76745         3.68655         1.16179
C         11.02307         6.32493         0.76621
C          9.77622         5.84001         1.14982
C         11.04662         7.70808         0.34322
C          9.80710         8.42198         0.23799
C         11.05562        10.52701         0.02953
C          9.82072         9.82415         0.04548
C         11.05477        11.95350         0.04688
C          9.79961        12.67533        -0.04180
C         11.00173        14.84736         0.37797
C          9.77155        14.10280         0.01310
C         11.04563        16.31875         0.16793
C          9.82101        17.01388         0.06159
C         11.03403        19.14189        -0.13954
C          9.80068        18.41887        -0.08362
C         11.02567        20.56526        -0.20994
C          9.77998        21.27495        -0.28845
C         11.02169        23.45579         0.09762
C          9.76344        22.71664        -0.27809
C         11.01967        24.85971        -0.44510
C          9.81537        25.57081        -0.56785
C         10.98037        27.39080        -1.60414
C          9.78746        26.94054        -1.01332
C         10.98954        29.62011        -1.63350
C          9.79299        30.01132        -0.98156
C         11.06291        32.25371        -0.61103
C          9.76628        31.46888        -0.67563
C         11.12082        33.55734         0.06143
C          9.85169        34.17845         0.43045
C         11.15686        36.35867         0.74280
C          9.87499        35.64936         0.74294
C         11.14021        37.76766         1.01840
C          9.88285        38.44822         1.22721
C         13.47953         3.43833         1.22752
C         12.23887         4.09184         1.09979
C         13.47170         6.20517         0.73475
C         12.24373         5.54484         0.93461
C         13.48152         7.51364        -0.04141
C         12.26053         8.37883         0.15946
C         13.50923        10.53076        -0.05853
C         12.28689         9.79971         0.02853
C         13.51384        11.93294         0.02121
C         12.28295        12.63459         0.12727
C         13.59439        14.81367         0.33725
C         12.29533        14.07495         0.44250
C         13.56578        16.31042         0.20392
C         12.26810        17.02038         0.08661
C         13.51758        19.13221        -0.32162
C         12.27391        18.42528        -0.11120
C         13.49900        20.56800        -0.44154
C         12.27230        21.28516        -0.27465
C         13.49697        23.40766        -0.34785
C         12.28173        22.70146        -0.24798
C         13.50994        24.85328        -0.50509
C         12.25208        25.49405        -0.71650
C         13.47776        27.37541        -1.66435
C         12.23019        26.75273        -1.38036
C         13.49297        29.63784        -1.78369
C         12.26249        30.26669        -1.47858
C         13.53008        32.21848        -0.64444
C         12.33225        31.55569        -0.83118
C         13.56971        33.57371        -0.15489
C         12.32673        34.23144         0.20168
C         13.59923        36.32444         0.64302
C         12.35013        35.63893         0.57192
C         13.60364        37.72557         0.97150
C         12.37272        38.42021         1.15208
C         15.94088         3.48667         1.53639
C         14.70931         4.13569         1.26401
C         15.95424         6.23825         0.95794
C         14.71356         5.54011         0.96034
C         15.94561         7.70310         0.77314
C         14.78509         8.31208         0.05534
C         16.03716        10.57748         0.14669
C         14.79013         9.80065        -0.06749
C         16.01475        11.92778        -0.14174
C         14.77134        12.67883        -0.10611
C         15.94829        14.83387        -0.70445
C         14.79315        14.05950        -0.09194
C         15.99472        16.31097        -0.38232
C         14.79655        17.01206        -0.23202
C         15.96834        19.09197        -0.83885
C         14.73797        18.42237        -0.38620
C         15.93740        20.58368        -1.01699
C         14.70787        21.30066        -0.61372
C         15.98258        23.44394        -0.33301
C         14.71144        22.69908        -0.48929
C         15.98733        24.92607        -0.45522
C         14.70925        25.59273        -0.61708
C         15.85597        27.84992        -0.87842
C         14.67271        26.95976        -1.07335
C         15.91700        29.32875        -1.17808
C         14.76277        30.12610        -1.36209
C         16.03494        32.23600        -0.72804
C         14.77943        31.63947        -1.27242
C         16.04964        33.55658        -0.29695
C         14.79553        34.25245        -0.02993
C         16.05575        36.31668         0.53239
C         14.81918        35.63111         0.39239
C         16.06230        37.70578         0.90845
C         14.83939        38.38861         1.10422
C         18.39407         3.52741         1.85667
C         17.14993         4.19006         1.55897
C         18.41682         6.33283         1.32221
C         17.16342         5.60261         1.28812
C         18.48468         7.72883         1.04838
C         17.22641         8.47919         0.85555
C         18.48896        10.56256         0.39689
C         17.28348         9.88297         0.37430
C         18.52702        11.98649         0.17365
C         17.29681        12.63977        -0.30712
C         18.51237        14.88093        -0.19069
C         17.29544        14.12491        -0.54853
C         18.50025        16.30032        -0.29637
C         17.25116        17.01267        -0.48444
C         18.49049        19.14994        -0.66577
C         17.26135        18.40163        -0.66179
C         18.49774        20.56025        -0.86314
C         17.24194        21.34270        -1.20420
C         18.51086        23.44808        -0.72067
C         17.26225        22.69177        -0.51590
C         18.47365        24.90282        -0.53323
C         17.17520        25.61740        -0.56585
C         18.44728        27.81774        -0.90511
C         17.18489        27.10227        -0.60074
C         18.40457        29.26120        -0.92157
C         17.20028        29.97311        -0.98680
C         18.54823        32.20689        -0.79081
C         17.26286        31.47199        -1.00442
C         18.53561        33.61616        -0.32673
C         17.30014        34.26407        -0.08906
C         18.53033        36.32915         0.46018
C         17.29600        35.63611         0.30456
C         18.52345        37.71234         0.85188
C         17.29780        38.37529         1.06380
C         19.57423         4.21199         1.86144
C         20.85284         6.31497         1.53047
C         19.62252         5.62400         1.57880
C         20.90105         7.66332         1.20031
C         19.71978         8.39423         0.96222
C         20.86876        10.69229         1.08185
C         19.80903         9.82247         0.44486
C         20.83205        12.03804         0.95164
C         19.68633        12.73405         0.37383
C         20.88327        14.94236         0.31162
C         19.69330        14.17951         0.15849
C         20.89924        16.30795         0.10662
C         19.71521        17.03112        -0.19590
C         20.91657        19.22394        -0.40102
C         19.72080        18.46663        -0.41468
C         20.91065        20.59299        -0.61377
C         19.70075        21.28933        -0.84543
C         20.85363        23.50845        -1.36883
C         19.68563        22.76248        -0.96127
C         20.85065        24.86841        -1.44850
C         19.75173        25.67159        -0.89609
C         20.86202        27.87040        -1.37439
C         19.64282        27.13620        -1.12878
C         20.92539        29.20334        -1.14579
C         19.72137        29.94570        -0.74417
C         21.04022        32.23969        -0.71404
C         19.80536        31.43589        -0.56021
C         20.99473        33.57965        -0.51186
C         19.76688        34.28714        -0.18945
C         20.97799        36.39419         0.40344
C         19.77705        35.66790         0.22217
C         20.96035        37.73631         0.79488
C         19.75831        38.39682         1.01408
O         18.03030        32.02656        -2.15868
O          5.25571        34.09930        -1.04523
O         11.55661        14.39942         1.66509
O         15.07776         8.90822        -1.25067
O         16.39918        27.67846         0.48125
O          1.38899        18.48326         0.47391
O          5.71659         9.88961        -2.01662
O         13.47483        28.46357        -2.53689
O          1.73702        10.08350        -2.36966
O          1.83837         7.53942        -1.94406
O          7.59738        16.58597         1.16764
O          3.30572        35.57693         2.70672
O         19.81888        30.57101         0.61935
O          2.99705        22.77381         1.57071
O         17.50798        13.20222        -1.67885
O         16.29587         8.40760         2.01900
O          2.42769        26.32936         2.22170
O          9.78337        34.66796         1.83377
O         15.73921        19.70828        -2.18348
O          6.29492        16.34031        -2.31841
O         10.95201        28.49586        -2.46627
O         10.23364        32.27141        -1.83928
O         13.82444        15.66493         1.51600
O          4.68810        27.47945         1.80810
O         19.41053        25.35987         0.49693
O          7.24031        21.98622        -1.86658
O         16.72206        22.85122         0.82356
O          9.71642         4.78338         2.05169
O          8.08635        36.35664        -0.85082
O          3.99184         8.45430         1.03141
O          2.67971        17.38152        -2.71250
H          3.10171        16.57479        -3.11739
O          4.00150        15.00685        -2.83266
H          4.91480        15.45428        -2.86793
O         14.72506        32.09320        -2.67810
H         14.88610        33.06071        -2.68802
O         20.21616         9.66773        -0.96090
H         20.22433        10.56206        -1.36451
O         13.38178         7.04452        -1.42582
H         13.81866         7.73180        -1.98393
O         15.61601        14.83185        -2.13155
H         16.12103        14.07965        -2.52954
O          7.91005        29.71447         1.47945
H          7.66305        28.80988         1.77071
O         17.32881        21.68486        -2.61772
H         16.98667        20.90214        -3.11068
O          0.78486        24.34836         2.32015
H          1.10487        25.09411         2.88031
O         11.01226        23.57573         1.56714
H         11.07642        22.67049         1.93886
H          1.17582         2.35695         0.86457
H         -0.98910         3.56165         0.60891
H         -1.03753         5.94367        -0.05118
H         -1.06776         7.93157        -0.28640
H         -1.05446        10.29873        -0.58976
H         -1.00527        12.24091        -0.88533
H         -0.97068        14.68606        -1.01614
H         -0.91124        16.52538        -1.90203
H         -0.88906        18.97409        -1.87289
H         -0.79741        21.12033        -1.54985
H         -0.72182        23.51068        -0.97481
H         -0.99781        25.08718         0.37670
H         -0.92064        27.45180         0.12106
H         -0.96464        29.35470         0.33406
H         -0.97744        31.77247         0.48260
H         -0.97688        33.68451         0.90453
H         -0.93822        36.08172         1.37931
H          0.33820        38.16990         1.93275
H          3.63859         2.37958         0.80467
H          2.45283        39.42068         1.99260
H          6.07467         2.37449         0.68455
H          4.93500        39.51731         1.57642
H          8.38910         2.28939         0.24640
H          7.36680        39.51682         1.54188
H         11.24317         2.25241         0.47610
H          9.91460        39.49834         1.55559
H         13.49187         2.34326         1.33621
H         12.39974        39.49059         1.40498
H         15.93973         2.40871         1.75782
H         14.85674        39.45731         1.36433
H         18.37570         2.44881         2.07114
H         17.30177        39.43628         1.35460
H         20.51816         3.68977         2.07616
H         21.78513         5.76459         1.72323
H         21.87663         8.16241         1.11840
H         21.74450        10.21747         1.54812
H         21.66473        12.63507         1.35047
H         21.82650        14.43755         0.55941
H         21.85618        16.83855         0.19975
H         21.87863        18.72719        -0.21733
H         21.85934        21.14630        -0.57875
H         21.72511        22.95386        -1.74566
H         21.69170        25.37782        -1.93949
H         21.77435        27.32187        -1.64382
H         21.88431        29.73380        -1.21886
H         22.00312        31.74163        -0.89520
H         21.93055        34.15198        -0.57561
H         21.94848        35.90675         0.24245
H         21.91084        38.27168         0.92791
H         19.75074        39.45353         1.31679
