         410
 CSIRO Nanostructure Databank - Neutral Graphene Oxide Data Set
C         28.09715        27.36697        -1.17882
C         28.08380        28.72113        -1.44667
C         26.86143        29.48719        -1.49333
C         28.11805        31.57674        -1.93643
C         26.86448        30.81716        -1.75578
C         28.13020        33.10972        -1.83247
C         26.88745        33.82930        -1.53205
C         28.15482        35.87858        -1.12484
C         26.91735        35.13463        -1.17572
C         28.13467        37.30698        -0.97032
C         26.90985        38.02972        -0.87739
C         28.07314        40.17919        -0.76071
C         26.88190        39.40100        -0.77749
C         28.00980        41.59862        -0.60596
C         26.82986        42.30679        -0.26216
C         28.02842        44.44980        -0.09363
C         26.82834        43.67765        -0.06252
C         28.02758        45.86192         0.13369
C         30.54940        27.25720        -1.01112
C         29.30815        26.64671        -0.98484
C         30.65002        28.66145        -1.43747
C         29.35214        29.42131        -1.70792
C         30.59382        31.57660        -1.52118
C         29.39071        30.89169        -1.67491
C         30.60224        33.03350        -1.43089
C         29.40806        33.76545        -1.48693
C         30.62813        35.90432        -1.20135
C         29.38223        35.18563        -1.25031
C         30.60601        37.35056        -1.08624
C         29.35499        38.03944        -0.95316
C         30.56015        40.16808        -0.73313
C         29.33404        39.47317        -0.84412
C         30.55549        41.63648        -0.77874
C         29.23212        42.39265        -0.75832
C         30.48335        44.52996        -0.29901
C         29.25809        43.80914        -0.35685
C         30.46519        45.95200        -0.10306
C         29.19285        46.58535         0.08929
C         33.00076        24.49554        -0.27408
C         31.81469        25.17225        -0.56171
C         33.00679        27.30329        -0.54421
C         31.78689        26.56519        -0.69324
C         33.03693        28.72761        -0.69014
C         31.84653        29.45808        -1.11734
C         33.14281        31.57275        -1.25770
C         31.82186        30.83647        -1.26227
C         33.06357        33.06107        -1.02371
C         31.84990        33.74161        -1.19457
C         33.11547        35.88142        -1.37161
C         31.83240        35.17923        -1.20193
C         33.07621        37.41930        -1.37538
C         31.81159        38.08278        -1.04353
C         33.04554        40.20788        -0.63823
C         31.81176        39.48675        -0.76533
C         33.03836        41.62034        -0.22144
C         31.73011        42.37458        -0.25920
C         32.95666        44.53398        -0.18728
C         31.73919        43.84617        -0.31198
C         32.94842        45.97436        -0.14944
C         31.69327        46.66719        -0.08515
C         32.85800        48.82338        -0.06430
C         31.71587        48.11040         0.03542
C         35.39703        23.06551         0.53099
C         35.41480        24.46243         0.31484
C         34.20379        25.17999        -0.07866
C         35.41767        27.34244         0.00374
C         34.21604        26.61123        -0.21172
C         35.41145        28.75089        -0.01037
C         34.21056        29.42570        -0.36963
C         35.42895        31.66326        -0.06395
C         34.16357        30.90325        -0.35849
C         35.49375        33.06505        -0.49324
C         34.31543        33.76230        -0.82378
C         35.55600        35.89511        -0.67999
C         34.36496        35.18711        -1.02075
C         35.60834        37.37887        -0.78420
C         34.35342        38.16434        -1.16774
C         35.51447        40.28165        -0.55771
C         34.29621        39.58217        -0.78124
C         35.50989        41.72528        -0.39187
C         34.27277        42.41182        -0.28478
C         35.43771        44.55924        -0.07147
C         34.22113        43.82361        -0.17896
C         35.41374        45.99293        -0.00419
C         34.17442        46.68660        -0.12267
C         35.36133        48.86319         0.25722
C         34.17764        48.17827        -0.37344
C         35.31152        50.19493         0.77116
C         37.76902        23.04895         1.06252
C         36.54972        22.37020         0.85480
C         37.77248        24.45980         0.93748
C         36.62557        25.16076         0.52038
C         37.81155        27.41103         0.74448
C         36.73091        26.60302         0.06595
C         37.80833        28.77463         0.71051
C         36.62648        29.51523         0.28263
C         37.90906        31.64330         0.40164
C         36.66475        30.90104         0.21158
C         37.96046        33.04807         0.15439
C         36.83657        33.73505        -0.59838
C         37.84353        35.90629         0.31150
C         36.71677        35.21038        -0.31584
C         37.83181        37.42795         0.42600
C         36.70150        38.14850        -0.18426
C         37.98537        40.25870        -0.11222
C         36.70672        39.53560        -0.30110
C         37.99690        41.75735        -0.17139
C         36.70972        42.46179        -0.24262
C         37.90676        44.58409         0.21855
C         36.68514        43.86385        -0.03107
C         37.87301        45.99881         0.36264
C         36.63382        46.70173         0.21279
C         37.76059        48.84436         0.67926
C         36.59272        48.14443         0.35335
C         37.75177        50.33906         0.51665
C         36.45510        50.90599         1.02046
C         40.23795        20.22612         1.54437
C         39.04332        20.92430         1.43483
C         40.25180        23.04237         1.39025
C         39.01668        22.33144         1.32229
C         40.28342        24.48277         1.34971
C         38.99361        25.19825         1.33478
C         40.29209        27.39823         1.23119
C         38.99445        26.69302         1.28149
C         40.28722        28.79431         1.17639
C         38.97126        29.53651         1.32144
C         40.30091        31.65035         0.95927
C         39.06238        30.96669         0.84627
C         40.32752        33.06569         0.81528
C         39.13285        33.76863         0.45672
C         40.27435        35.95686         0.77338
C         39.14260        35.22428         0.45302
C         40.29320        37.41611         0.78940
C         39.12163        38.12063         0.58654
C         40.37443        40.31874         0.63645
C         39.05155        39.61385         0.74967
C         40.37528        41.75080         0.57858
C         39.17867        42.47616         0.33632
C         40.35460        44.60698         0.70091
C         39.14822        43.88751         0.41615
C         40.31783        46.02942         0.87006
C         39.07354        46.68922         0.73259
C         40.25723        48.90889         1.25896
C         38.97279        48.11844         1.03486
C         40.23526        50.37576         1.06745
C         39.02206        51.06465         0.90155
C         40.22588        53.17886         0.86738
C         39.03473        52.47202         0.81402
C         42.72622        20.18954         1.50713
C         41.47184        20.91175         1.58261
C         42.72489        23.06083         1.70121
C         41.46448        22.32323         1.55276
C         42.74433        24.49810         1.39353
C         41.48938        25.19925         1.33353
C         42.73542        27.34211         1.22985
C         41.50421        26.65080         1.26249
C         42.74036        28.77613         1.22393
C         41.51463        29.50381         1.19918
C         42.76016        31.64586         1.28770
C         41.53375        30.94147         1.18729
C         42.74114        33.08172         1.28663
C         41.54576        33.76925         1.06298
C         42.78297        36.03020         1.33124
C         41.49242        35.24220         1.20311
C         42.77705        37.47399         1.02154
C         41.56028        38.14611         0.88354
C         42.81012        40.30235         0.79792
C         41.56170        39.59124         0.76217
C         42.80903        41.72853         0.86545
C         41.59157        42.46807         0.77674
C         42.79165        44.62032         1.10306
C         41.58867        43.90190         0.82907
C         42.80881        46.04585         1.18658
C         41.54880        46.76199         1.10471
C         42.72520        48.93826         1.20640
C         41.53090        48.17760         1.15178
C         42.72032        50.36003         1.13563
C         41.46911        51.07762         1.06636
C         42.70238        53.20377         0.85908
C         41.45912        52.49566         0.94543
C         43.92508        20.81758         1.42593
C         45.25586        23.01960         1.21873
C         44.04588        22.27294         1.63077
C         45.21844        24.43302         1.11354
C         43.96446        25.15941         1.22193
C         45.17902        27.27663         0.97052
C         43.97343        26.59886         1.13590
C         45.21432        28.72770         1.21280
C         43.96721        29.49391         1.27179
C         45.26288        31.59761         1.17408
C         44.00719        30.90494         1.30774
C         45.29387        33.03761         1.47501
C         44.00036        33.82814         1.54975
C         45.24588        35.99451         1.19351
C         44.05991        35.29681         1.31174
C         45.25730        37.43487         0.97203
C         44.03551        38.15622         0.92834
C         45.26310        40.31664         0.74247
C         44.03871        39.59235         0.81584
C         45.24914        41.73379         0.85600
C         44.03852        42.42426         1.01726
C         45.38176        44.63981         1.45143
C         44.00959        43.85770         1.35782
C         45.32973        46.11786         1.30876
C         44.04035        46.75729         1.33106
C         45.28787        49.04382         1.24492
C         43.98166        48.22503         1.44731
C         45.16767        50.40651         0.75153
C         43.93749        51.09369         0.93252
C         43.88604        52.52343         0.80941
C         47.62663        23.02747         0.65038
C         46.46687        22.34136         0.96716
C         47.63481        24.43965         0.55082
C         46.41811        25.13911         0.78446
C         47.54494        27.26319         0.23385
C         46.40380        26.57506         0.68623
C         47.45537        28.72674         0.01468
C         46.46748        29.47759         0.82824
C         47.61654        31.60980         0.29993
C         46.42644        30.94188         0.71815
C         47.76221        33.03337         0.65882
C         46.58800        33.76399         1.27221
C         47.75497        35.98703         0.76070
C         46.54223        35.27079         1.27285
C         47.69367        37.44223         0.52001
C         46.49312        38.14029         0.74877
C         47.72468        40.27523         0.64408
C         46.50744        39.59207         0.66503
C         47.79615        41.72545         0.47772
C         46.48422        42.51098         0.63793
C         47.84562        44.60208         0.95599
C         46.56295        43.91613         1.00782
C         47.84243        46.14336         1.07939
C         46.52869        46.82234         1.11307
C         47.70907        48.99875         0.31710
C         46.56210        48.29175         1.04116
C         47.39570        50.29869        -0.29390
C         46.23036        50.96030        -0.03658
C         50.06637        24.51676        -0.04639
C         48.82852        25.16572         0.16055
C         49.88378        27.26047        -0.63529
C         48.75733        26.57257        -0.07407
C         49.75620        28.68370        -1.05707
C         48.56932        29.49407        -0.62472
C         49.86012        31.67372        -0.74468
C         48.70499        30.95637        -0.33728
C         49.94713        33.11046        -0.55800
C         48.87219        33.77858         0.04375
C         50.05037        36.02160        -0.38847
C         48.80228        35.23280         0.01755
C         50.13087        37.42558         0.04695
C         48.94767        38.10295         0.37806
C         50.30271        40.27069         0.55072
C         48.98622        39.52927         0.72958
C         50.27728        41.73888         0.40174
C         49.08905        42.44095         0.54960
C         50.22493        44.58511         0.19477
C         49.07686        43.89650         0.49267
C         50.27329        46.06569         0.12152
C         49.05210        46.87440         0.53453
C         49.82552        48.66370        -0.98530
C         48.86163        48.18261        -0.13690
C         51.16856        25.20741        -0.52366
C         52.25201        27.25538        -1.60193
C         51.08908        26.57565        -0.86434
C         52.27915        28.73748        -1.31709
C         51.01644        29.44970        -1.39233
C         52.32936        31.66490        -1.48843
C         50.99786        30.95316        -1.36448
C         52.35614        33.15811        -1.35334
C         51.15297        33.86668        -0.88693
C         52.52644        35.95069        -0.65259
C         51.26166        35.24361        -0.66114
C         52.56640        37.37295        -0.43344
C         51.38968        38.10004        -0.07360
C         52.60449        40.21688        -0.36159
C         51.45614        39.51299         0.05421
C         52.57761        41.65944        -0.42271
C         51.48895        42.39672         0.00007
C         52.54901        44.53186        -0.84459
C         51.56609        43.89733         0.11802
C         52.45121        45.90890        -1.17564
C         51.25396        46.66640        -0.82212
C         51.00792        47.93092        -1.30893
C         54.74057        27.22301        -1.17782
C         53.59061        26.57987        -1.42303
C         54.80259        28.67667        -0.89673
C         53.50207        29.47544        -1.02645
C         54.82435        31.57904        -1.13178
C         53.58835        30.92566        -1.26345
C         54.92196        33.02120        -1.08527
C         53.70726        33.84334        -1.23319
C         55.00108        35.91069        -0.72997
C         53.73682        35.25541        -0.82034
C         55.03099        37.35136        -0.69968
C         53.80422        38.07543        -0.58273
C         55.03519        40.22048        -0.89862
C         53.81028        39.50595        -0.63468
C         55.00485        41.62233        -1.14388
C         53.65540        42.29068        -1.25691
C         54.80552        44.44402        -1.79466
C         53.67901        43.79602        -1.22273
C         54.71590        45.82604        -2.08955
C         53.54414        46.52173        -1.84005
C         56.03919        29.42565        -1.14309
C         56.04035        30.78235        -1.14570
C         56.11497        33.71079        -0.82717
C         56.16803        35.10587        -0.73333
C         56.24051        38.08829        -0.83092
C         56.24328        39.46247        -0.94257
C         56.12419        42.37022        -1.58399
C         56.01903        43.69825        -1.96751
O         44.68174        44.13986         2.62621
O         35.35709        37.85043        -2.16490
O         51.50086        31.38099        -2.67778
O         50.09866        28.92053        -2.46004
O         39.44825        48.47668         2.40134
O         30.15242        28.86678        -2.80480
O         43.49158        22.71909         2.90840
O         38.39758        40.90780        -1.34297
O         47.64211        48.94166         1.78582
O         38.75221        26.01232         2.57013
O         44.68519        33.38249         2.76575
O         54.09308        29.08047         0.30798
O         34.34456        31.46692         0.96272
O         47.56116        35.77090         2.19801
O         32.23024        41.84420         1.00855
O         49.83797        39.83957         1.88499
O         53.00488        33.72470        -2.53452
O         33.09279        36.66903        -2.62285
O         48.11743        45.32210         2.23365
O         41.96908        35.69927         2.51892
O         50.21925        46.77741         1.41194
O         48.95526        35.77874        -1.33734
O         47.04710        42.21836        -0.70684
O         37.44293        36.59151         1.57179
O         29.99390        42.16470        -2.01174
O         47.64019        33.24139         2.13507
O         47.36866        29.13766        -1.40079
O         28.13404        32.42946        -3.13363
O         44.73339        48.79580         2.56450
O         46.27320        29.04338         2.20206
O         34.37614        48.34002        -1.84098
H         33.63096        47.88154        -2.28540
O         37.17832        26.48707        -1.34134
H         37.07815        27.36988        -1.75793
O         33.68874        31.40784        -2.61305
H         33.00450        31.70352        -3.25094
O         52.16089        44.13238         1.44686
H         51.84815        45.00527         1.77252
O         51.96052        27.08677        -3.02797
H         51.16375        27.64549        -3.21927
O         37.72108        50.51524        -0.96502
H         36.86461        50.14733        -1.27927
O         37.24818        33.61659        -2.02381
H         36.54393        34.03662        -2.56445
O         38.71202        29.61722         2.75933
H         38.66755        28.69975         3.10592
O         38.56416        39.83599         2.12007
H         39.10021        39.28340         2.72825
O         53.22413        41.98064        -2.64773
H         53.92989        42.30948        -3.24556
H         27.14356        26.83808        -1.03637
H         25.90918        28.95378        -1.35578
H         25.91028        31.34820        -1.87296
H         25.92494        33.31358        -1.64616
H         25.96729        35.64450        -0.97197
H         25.95150        37.49606        -0.89916
H         25.90631        39.90279        -0.72945
H         25.88006        41.76453        -0.15725
H         25.88214        44.18793         0.16795
H         27.07061        46.36914         0.32307
H         29.22440        25.58539        -0.71380
H         29.14215        47.67132         0.24332
H         32.95925        23.40223        -0.19216
H         30.89687        24.58565        -0.69826
H         32.80570        49.92074        -0.03435
H         30.77034        48.64716         0.19313
H         34.46882        22.49431         0.40325
H         34.33747        50.65632         0.98750
H         36.49387        21.27847         0.95470
H         36.40580        51.92985         1.41500
H         40.22895        19.12769         1.58757
H         38.10587        20.35335         1.41008
H         40.22249        54.27530         0.78723
H         38.08969        53.01338         0.66933
H         42.67645        19.09525         1.40400
H         42.68593        54.30122         0.79578
H         44.83058        20.22661         1.22805
H         44.82878        53.08038         0.72061
H         48.54564        22.45317         0.47573
H         46.50676        21.24673         1.04716
H         48.11539        50.74012        -0.99678
H         46.06922        51.93919        -0.51031
H         50.17195        23.44463         0.16557
H         49.70563        49.65490        -1.44396
H         52.10977        24.66116        -0.66828
H         51.72103        48.40798        -1.99454
H         55.69210        26.66836        -1.17909
H         53.63228        25.50830        -1.66822
H         55.57914        46.34216        -2.53358
H         53.49649        47.58729        -2.10241
H         56.96948        28.86574        -1.31867
H         56.99737        31.30418        -1.28140
H         57.05718        33.15623        -0.71855
H         57.15200        35.57735        -0.60688
H         57.19790        37.55230        -0.88869
H         57.20269        39.97926        -1.08203
H         57.10771        41.88366        -1.65542
H         56.90650        44.22200        -2.35114
