         196
 CSIRO Nanostructure Databank - Neutral Graphene Oxide Data Set
C        -11.14105         0.67789         0.18252
C         -9.94596         1.45498        -0.05699
C         -8.72434         0.68050        -0.32972
C         -7.39578         1.46851        -0.31395
C         -6.18585         0.72504        -0.04229
C         -4.94348         1.40750         0.28601
C         -3.66409         0.72577        -0.03327
C         -2.48664         1.40771        -0.21117
C         -1.22528         0.69743        -0.37369
C          0.00302         1.42358        -0.25491
C          1.23278         0.71706        -0.24682
C          2.48347         1.42653        -0.17134
C          3.70501         0.71965        -0.24255
C          4.95515         1.43002        -0.18418
C          6.18445         0.73807        -0.28646
C          7.40646         1.41632        -0.11023
C          8.65261         0.68435        -0.11535
C          9.89296         1.40614        -0.01112
C         11.12433         0.65267         0.04880
C         -9.91285         2.84202        -0.08854
C         -8.69028         3.61100        -0.16160
C         -7.43408         2.92589        -0.11029
C         -6.23811         3.63509         0.03941
C         -4.96135         2.93207         0.26601
C         -3.71682         3.63573        -0.00812
C         -2.48661         2.89710        -0.44854
C         -1.20738         3.59343        -0.08214
C          0.00134         2.86693        -0.10673
C          1.24267         3.56426         0.00425
C          2.48463         2.85420        -0.03958
C          3.71147         3.55832         0.07592
C          4.95107         2.84254         0.02709
C          6.19008         3.52272         0.19482
C          7.41274         2.83061         0.11745
C          8.67726         3.55390         0.10924
C          9.89200         2.79687         0.02433
C         -8.67566         5.02307        -0.17109
C         -7.46453         5.75925        -0.15988
C         -6.21972         5.05390        -0.04129
C         -4.97714         5.75217        -0.01659
C         -3.72588         5.02708        -0.03207
C         -2.47731         5.74299         0.03590
C         -1.22327         5.00083         0.09004
C          0.00877         5.67995         0.23179
C          1.23746         4.98363         0.13914
C          2.48151         5.70394         0.19335
C          3.70490         4.99542         0.17897
C          4.93285         5.71533         0.29104
C          6.17126         4.96001         0.49473
C          7.52192         5.73865         0.41084
C          8.70687         4.94508         0.09822
C         -7.42028         7.18499        -0.24271
C         -6.21035         7.88135        -0.21784
C         -4.96385         7.16737        -0.10248
C         -3.72547         7.86706        -0.06040
C         -2.50827         7.14228         0.09639
C         -1.28210         7.89897         0.39769
C          0.02688         7.12940         0.48267
C          1.27715         7.86798         0.27712
C          2.49132         7.14030         0.21938
C          3.72868         7.84456         0.18041
C          4.95847         7.12280         0.25070
C          6.22059         7.83965         0.15062
C          7.42807         7.16823         0.11635
C         -6.14598         9.32078        -0.31927
C         -4.95489         9.99089        -0.29650
C         -3.69324         9.30532        -0.14973
C         -2.47716        10.00124        -0.13051
C         -1.23096         9.34448         0.10034
C          0.00354         9.98916         0.09165
C          1.25537         9.28318         0.18312
C          2.49933         9.96543         0.07697
C          3.71497         9.27423         0.09383
C          4.98476         9.96016        -0.00928
C          6.16389         9.27967        -0.00740
C        -11.13805        -0.69133         0.21648
C         -9.92378        -1.47800         0.10372
C         -8.69773        -0.77475        -0.07450
C         -7.48354        -1.47633        -0.04260
C         -6.22718        -0.72304         0.07166
C         -4.92694        -1.48238         0.00257
C         -3.73177        -0.69583        -0.40384
C         -2.46538        -1.42937        -0.73096
C         -1.20127        -0.70859        -0.50561
C          0.01840        -1.43641        -0.39034
C          1.23922        -0.71168        -0.27399
C          2.47421        -1.42763        -0.22671
C          3.70659        -0.71584        -0.27976
C          4.92002        -1.44100        -0.39731
C          6.19000        -0.70049        -0.74237
C          7.43652        -1.45555        -0.34083
C          8.65867        -0.72505        -0.16069
C          9.89273        -1.45849        -0.04758
C         11.12357        -0.71041         0.05414
C         -9.89816        -2.88118         0.18437
C         -8.68262        -3.61389         0.10085
C         -7.44595        -2.89468         0.02434
C         -6.19885        -3.61684        -0.03868
C         -4.96212        -2.93813        -0.20565
C         -3.75446        -3.63492        -0.37889
C         -2.50265        -2.92657        -0.71766
C         -1.19721        -3.65369        -0.54158
C          0.03883        -2.86785        -0.34507
C          1.23604        -3.56564        -0.14100
C          2.47840        -2.84949        -0.16323
C          3.70803        -3.56128        -0.21895
C          4.91595        -2.83716        -0.39934
C          6.17985        -3.56908        -0.77030
C          7.43564        -2.83545        -0.36519
C          8.66340        -3.58189        -0.22250
C          9.88008        -2.85143        -0.07070
C         -8.64790        -5.04184         0.10821
C         -7.44439        -5.75801         0.05179
C         -6.19064        -5.04132        -0.01095
C         -4.95683        -5.73861         0.00098
C         -3.72064        -5.03840        -0.16126
C         -2.46281        -5.71180         0.02907
C         -1.24081        -5.04824        -0.06246
C          0.01453        -5.68310         0.22380
C          1.23014        -5.00055         0.06776
C          2.49821        -5.70624         0.07354
C          3.70716        -4.99951        -0.15238
C          4.95232        -5.71483        -0.23023
C          6.17576        -5.02386        -0.38509
C          7.40987        -5.71980        -0.31173
C          8.63842        -4.98512        -0.27068
C         -7.40845        -7.19244         0.03288
C         -6.20820        -7.89482         0.04105
C         -4.95162        -7.18159         0.09912
C         -3.75038        -7.87074         0.24048
C         -2.51419        -7.10152         0.61560
C         -1.23874        -7.87091         0.44173
C          0.00146        -7.10832         0.59891
C          1.31656        -7.87181         0.53628
C          2.53090        -7.12572         0.17782
C          3.73097        -7.84590         0.01765
C          4.95670        -7.14135        -0.13688
C          6.19797        -7.85341        -0.18515
C          7.39912        -7.14129        -0.22912
C         -6.15110        -9.33820         0.04006
C         -4.96318       -10.00818         0.11066
C         -3.70446        -9.30587         0.23162
C         -2.48062        -9.97374         0.30905
C         -1.22414        -9.26446         0.38336
C          0.03091        -9.97546         0.30432
C          1.26006        -9.32909         0.30240
C          2.51152        -9.99654         0.10607
C          3.71401        -9.29741         0.03506
C          4.98075        -9.98083        -0.07151
C          6.15980        -9.29819        -0.15371
O         -0.70141         7.53596         1.69885
O         -4.93854         2.17254         1.54930
O          0.75083        -7.43956         1.82383
O         -3.32115        -0.89407        -1.80156
O          6.22543        -0.65875        -2.21211
H          6.17994        -1.60049        -2.51540
O         -5.44001        -1.12282         1.31295
O         -8.06012         1.04941        -1.57800
O         -2.54243         2.98681        -1.93623
H         -1.83687         2.40295        -2.29064
O         -1.80460        -3.49031        -1.88008
O         -2.62554        -6.87817         2.08017
H         -2.44315        -7.73544         2.52126
O          6.90520         5.34715         1.69131
O          6.19505        -3.54368        -2.26039
H          6.97780        -4.06295        -2.54620
H         12.07055        -1.26593         0.12309
H         12.07192         1.20714         0.11795
H         10.85025         3.33748         0.05293
H          9.65234         5.46566        -0.11822
H          8.34979         7.71560        -0.13393
H          7.11486         9.82558        -0.09715
H          4.98001        11.05634        -0.10249
H          2.50287        11.06228        -0.01251
H          0.03663        11.07733        -0.07165
H         -2.48224        11.09293        -0.27184
H         -4.94324        11.08811        -0.37858
H         -7.08806         9.87982        -0.42165
H         -8.36396         7.74428        -0.33326
H         -9.63058         5.56922        -0.20795
H        -10.85738         3.39609         0.02859
H        -12.08954         1.21933         0.31798
H        -12.08564        -1.22783         0.37320
H        -10.84414        -3.43033         0.30590
H         -9.59893        -5.59395         0.15521
H         -8.36036        -7.74520         0.02854
H         -7.09572        -9.89882        -0.02328
H         -4.94903       -11.10825         0.09792
H         -2.46252       -11.07337         0.27651
H         -0.00032       -11.06809         0.17547
H          2.52036       -11.09473         0.03123
H          4.98111       -11.08097        -0.06161
H          7.11190        -9.84659        -0.20853
H          8.35636        -7.68336        -0.20486
H          9.58324        -5.54219        -0.18602
H         10.82726        -3.40568         0.01097
