         276
 CSIRO Nanostructure Databank - Neutral Graphene Oxide Data Set
C        -10.81539         0.77465        -1.89555
C        -10.00773         1.46301        -0.80016
C         -8.54445         0.93366        -0.84019
C         -7.72539         1.49466         0.34741
C         -6.34376         0.81562         0.41990
C         -5.08286         1.48741        -0.13544
C         -3.81528         0.91627         0.53943
C         -2.50878         1.57791         0.30986
C         -1.33568         0.91220         0.51976
C         -0.09601         1.37600        -0.18122
C          1.19061         0.87202         0.47929
C          2.47334         1.52265         0.11001
C          3.64653         0.57308        -0.10335
C          4.92902         1.30160        -0.46876
C          6.22680         0.81480         0.20091
C          7.47134         1.41813        -0.47644
C          8.75587         0.76918        -0.10687
C         10.10560         1.47910        -0.10858
C         11.02393         0.73874        -1.09027
C         -9.99962         3.02845        -0.91681
C         -8.85003         3.76669        -0.21780
C         -7.65654         3.02713         0.25903
C         -6.34584         3.77361         0.20666
C         -5.10765         3.01463        -0.17951
C         -3.78983         3.67174        -0.45338
C         -2.53178         2.80746        -0.59299
C         -1.26778         3.59083        -0.45925
C         -0.06296         2.87393        -0.42618
C          1.16419         3.54591        -0.53294
C          2.43714         2.77583        -0.76502
C          3.69051         3.58274        -0.47503
C          4.94315         2.80559        -0.60708
C          6.22820         3.52174        -0.30433
C          7.47692         2.89573        -0.89644
C          8.74236         3.65024        -0.48156
C          9.95666         2.96539        -0.34808
C         -8.82820         5.15442        -0.19440
C         -7.66514         5.95520         0.08558
C         -6.36791         5.22186        -0.24590
C         -4.98726         5.90647        -0.29876
C         -3.69802         5.13235        -0.25959
C         -2.53959         5.80937        -0.43088
C         -1.26955         5.06432        -0.78224
C         -0.06333         5.69108        -0.12111
C          1.24823         5.04126        -0.53824
C          2.37860         5.49474         0.41520
C          3.68263         4.85462        -0.01337
C          4.91199         5.63921         0.40791
C          6.22039         4.96205         0.04014
C          7.36136         5.78099        -0.57230
C          8.66368         5.04900        -0.36011
C         -7.75940         7.38430         0.08141
C         -6.72011         8.21582         0.50934
C         -4.75738         7.20111         0.38751
C         -3.74904         7.99559        -0.02192
C         -2.45491         7.32639        -0.44418
C         -1.43419         7.81546         0.64779
C         -0.10633         7.04364         0.52599
C          1.21017         7.75789         0.77896
C          2.41836         6.99772         0.37314
C          3.55924         7.61482        -0.15866
C          4.84212         7.06526        -0.08893
C          6.05589         7.86392        -0.03866
C          7.27814         7.22431        -0.13000
C         -6.39544         9.62106         0.33093
C         -5.13064        10.14624         0.33689
C         -3.79133         9.49812        -0.02098
C         -2.50580        10.08684         0.51894
C         -1.32492         9.34104         0.60530
C         -0.07502         9.97546         0.76227
C          1.19141         9.28361         1.00782
C          2.46544        10.08620         1.10844
C          3.57996         9.77664         0.39977
C          4.98445        10.11784         0.61502
C          6.03078         9.29002         0.33359
C        -10.68703        -0.53524        -2.17665
C         -9.56706        -1.37136        -1.65431
C         -8.47668        -0.60861        -0.96756
C         -7.50282        -1.39695        -0.13322
C         -6.24989        -0.66795         0.25446
C         -4.85693        -1.28950         0.01393
C         -3.79534        -0.55600         0.83941
C         -2.45217        -1.23037         1.13290
C         -1.26510        -0.60615         0.37896
C          0.00985        -1.36064         0.72341
C          1.30822        -0.60301         0.90898
C          2.56708        -1.25503         0.26164
C          3.85312        -0.63769         0.77785
C          5.05707        -1.34646         0.64103
C          6.27083        -0.68413         0.34477
C          7.53283        -1.34392         0.41022
C          8.67850        -0.56549         0.50791
C         10.35838        -1.59873        -0.45397
C         11.11675        -0.60667        -1.22377
C         -9.67008        -2.84118        -1.46435
C         -8.62234        -3.60020        -0.94454
C         -7.47586        -2.87315        -0.32070
C         -6.15746        -3.57349        -0.24105
C         -4.90026        -2.82472         0.09625
C         -3.90006        -3.47942         1.04081
C         -2.52042        -2.78614         1.13866
C         -1.21943        -3.52845         1.04898
C          0.01913        -2.71713         0.83665
C          1.32309        -3.44483         0.87794
C          2.46624        -2.78842         0.07836
C          3.81507        -3.53081         0.31839
C          5.04639        -2.83139         0.94210
C          6.29383        -3.56065         0.41137
C          7.57557        -2.81968         0.19629
C          8.90269        -3.58320         0.07360
C          9.89480        -2.81661        -0.82081
C         -8.62713        -5.01769        -0.77582
C         -7.49402        -5.78537        -0.34439
C         -6.18770        -5.07983        -0.18691
C         -4.96498        -5.77463         0.30637
C         -3.79875        -5.00963         0.90270
C         -2.48656        -5.74105         0.96880
C         -1.18017        -5.01366         0.90574
C         -0.00165        -5.69175         0.98006
C          1.29653        -4.95002         0.98036
C          2.49770        -5.73685         0.58564
C          3.80222        -5.02219         0.46269
C          5.06387        -5.77542         0.85811
C          6.35584        -5.04989         0.63511
C          7.49274        -5.77881        -0.00534
C          8.66491        -4.98459        -0.55622
C         -7.49801        -7.16710        -0.18694
C         -6.20908        -7.97169        -0.17341
C         -5.04593        -7.25104         0.51797
C         -3.74566        -7.97221         0.56061
C         -2.47228        -7.17369         0.50311
C         -1.18113        -7.90595         0.55651
C         -0.02427        -7.20237         1.26338
C          1.33925        -7.96033         1.05816
C          2.46769        -7.08781         0.53210
C          3.71692        -7.87838         0.35163
C          5.03923        -7.26255         0.63387
C          6.34186        -7.99809         0.30545
C          7.39932        -7.09757        -0.28743
C         -6.22539        -9.39093         0.35150
C         -5.06666       -10.05985         0.48918
C         -3.71827        -9.44144         0.12532
C         -2.51192       -10.14375         0.79107
C         -1.19874        -9.39865         0.57196
C         -0.01237       -10.03246         0.40678
C          1.23881        -9.28302         0.27350
C          2.32754        -9.82664        -0.33455
C          3.58686        -9.03387        -0.61089
C          4.87985        -9.80640        -0.74005
C          6.08491        -9.27817        -0.47338
O          1.60974        -4.08054         2.14546
O          6.52989         3.96100         1.06326
O         -4.73907         3.43881        -1.53794
O         -0.21745         5.80999         1.31309
O          1.89782         1.74050         1.42016
O          1.17169         8.31714         2.13864
O          5.06191         1.90824        -1.76368
O          3.39629         8.90141        -0.68902
O         -3.30764        -5.55625         2.16218
O         -4.54722        -7.76673         1.77517
O         -8.28560        -0.98635        -2.37644
O         -1.66494        -7.33663        -0.70763
O          9.90826        -1.14675         0.83094
O          2.93644        -0.49618        -1.00946
O          4.34835        -8.06965         1.65300
O          1.79302        -8.41599         2.30789
O          4.09748        -4.36671        -0.83385
O         -5.75331         7.57844         1.29261
O         -5.14601        -3.26575        -1.26251
O         -7.96342        -2.25964         0.94359
O          8.12672         0.60892        -1.47582
O         -1.85136        -3.23472         2.35808
O         -4.08792         0.41604         1.87451
O         -5.24539         6.18995        -1.76103
O          5.90141        -5.39142         1.99700
O         -5.15129        -5.57773        -1.13603
O         -6.98876         3.56288         1.47175
O         -6.42296         5.31656        -1.74436
O          6.67732        -3.15346        -0.92753
O         -1.23468        -0.58307        -1.10443
O         -6.30983        -0.06234         1.57765
O         -0.25093         0.55103        -1.42745
O         -1.11375         5.19177        -2.24667
H         -1.63505         4.46120        -2.65412
O          9.43905        -3.75588         1.38776
H         10.16057        -4.41831         1.30925
O          2.11446         5.01570         1.73898
H          2.87919         5.29053         2.29567
O         10.68926         1.38033         1.21133
H         10.80670         0.42255         1.41656
O         -0.35697        -7.29681         2.66026
H          0.44385        -7.72559         3.08403
O          2.45470         2.33988        -2.14131
H          2.57585         3.12833        -2.71014
O         -3.71288         9.87046        -1.45281
H         -3.03657         9.27633        -1.86674
O         -1.97753         7.76802        -1.73156
H         -1.76241         6.97342        -2.27946
O         -5.84914        -8.08190        -1.59594
H         -5.63869        -7.16175        -1.90110
O          3.38023        -8.39173        -1.91412
H          3.16100        -9.09048        -2.56553
O         -5.09576         1.12419        -1.53864
H         -5.91482         1.50087        -1.94290
O          4.97398        -2.93576         2.37169
H          5.18382        -3.86887         2.63191
O          7.40661         2.97811        -2.33483
H          7.74550         2.12534        -2.69501
O         -8.40708         1.21741         1.58046
H         -7.86061         0.55846         2.08232
O          7.09942         5.79940        -2.01534
H          7.26905         4.89359        -2.37364
O         -2.02412         7.47079         1.91371
H         -1.30088         7.34923         2.56558
O          2.06174        -3.00078        -1.28108
H          2.72926        -2.59111        -1.87206
O         -7.90886         1.48288        -2.02555
H         -8.01750         0.78543        -2.72620
O          6.91106        -8.43495         1.57135
H          6.14487        -8.66890         2.14678
O          9.88405        -5.72517        -0.37910
H          9.70625        -6.50350         0.18828
O          1.62710         5.51043        -1.85571
H          0.85094         5.35796        -2.44604
O          6.22769         1.36008         1.54973
H          5.61390         0.83337         2.10563
O         -3.53086        -9.53107        -1.29446
H         -4.32009        -9.10783        -1.71911
O        -10.69321         1.08678         0.40185
H        -10.08861         1.21456         1.17447
O         -4.51961        -3.24027         2.32878
H         -3.97800        -3.74196         2.98393
O         -2.53186         2.27708        -1.94672
H         -3.37724         1.77338        -2.07105
O          1.59530        -0.65305         2.32111
H          0.79116        -0.39449         2.81876
O         -4.33779        -1.03695        -1.30487
H         -4.72624        -1.68880        -1.93456
O         -2.08469        -0.83580         2.47228
H         -2.76026        -1.18248         3.09296
O          4.85046         5.72166         1.86603
H          5.38414         4.96175         2.20392
O         -2.74955       -10.25351         2.19959
H         -2.88707        -9.35545         2.56966
O         -9.94027         3.39243        -2.30353
H         -9.09577         3.03512        -2.66103
H         11.78238        -1.00581        -2.00626
H         11.64955         1.36088        -1.74982
H         10.85766         3.56302        -0.13641
H          9.57779         5.61886        -0.13143
H          8.20852         7.80021        -0.00744
H          7.03568         9.70548         0.52107
H          5.21330        11.10794         1.04067
H          2.52725        10.78005         1.96024
H         -0.03477        11.06860         0.63413
H         -2.43500        11.18621         0.55936
H         -5.08155        11.24615         0.25765
H         -7.23755        10.33014         0.25460
H         -8.70057         7.83302        -0.27670
H         -9.75950         5.68926        -0.44351
H        -10.97437         3.41257        -0.52253
H        -11.63324         1.34769        -2.35839
H        -11.37073        -1.00768        -2.89966
H        -10.57840        -3.34282        -1.82936
H         -9.53951        -5.56886        -1.05030
H         -8.44026        -7.71469        -0.34701
H         -7.18629        -9.86839         0.59702
H         -5.07446       -11.09900         0.85273
H         -2.41730       -11.18344         0.39095
H          0.02843       -11.13186         0.34031
H          2.23473       -10.81422        -0.81844
H          4.82439       -10.79718        -1.22150
H          6.98361        -9.88304        -0.67793
H          8.21506        -7.58566        -0.84546
H          8.50174        -4.83953        -1.66119
H         10.17466        -3.24549        -1.79396
