         648
 CSIRO Nanostructure Databank - Neutral Graphene Oxide Data Set
C          5.95335        31.70380        -0.40680
C          5.88519        32.99578        -0.03950
C          8.54882        27.49411        -0.62786
C          8.48528        28.91697        -0.51184
C          7.29906        29.59537        -0.71623
C          8.44437        31.75245        -0.14367
C          7.26662        31.09144        -0.82946
C          8.35833        33.07146         0.20300
C          7.10259        33.80121         0.04566
C          8.36667        35.90536        -0.15755
C          7.09613        35.16470        -0.03764
C          8.42001        37.35337        -0.21425
C         10.89200        23.11920        -0.58215
C         10.44747        24.34909        -0.09166
C          9.58933        25.31977        -0.63679
C         10.90125        27.39307         0.12216
C          9.67404        26.71412        -0.30058
C         10.96468        28.85766        -0.15442
C          9.71149        29.64746        -0.21590
C         10.89790        31.76053         0.36482
C          9.69386        31.01583        -0.00717
C         10.81593        33.06232         0.76969
C          9.49777        33.79647         0.87534
C         10.79836        36.02633         0.67873
C          9.65012        35.19849         0.27670
C         10.83092        37.39364         0.44565
C          9.62267        38.04811        -0.07175
C         10.81838        40.18141        -0.13538
C          9.67426        39.42108        -0.41937
C         10.96615        41.50882        -0.58232
C         13.40386        18.93671        -0.32146
C         13.37979        20.34810        -0.14594
C         12.21256        21.08879        -0.41519
C         13.26181        23.13851         0.41736
C         12.09609        22.46416        -0.13391
C         13.30915        24.57156         0.64907
C         12.16488        25.35231         0.75653
C         13.37123        27.46273         0.58661
C         12.10427        26.75530         0.46338
C         13.41066        28.87345         0.59488
C         12.25350        29.61368         0.05478
C         13.36169        31.70725         0.97354
C         12.26484        31.14531         0.09365
C         13.32888        33.14635         1.21642
C         12.01067        33.82140         1.21689
C         13.24474        36.10271         1.24464
C         11.98308        35.34014         1.22008
C         13.23018        37.49121         1.22157
C         11.98065        38.19595         0.85463
C         12.81262        40.54089         1.19243
C         11.87524        39.59048         0.66628
C         13.09533        41.78265         0.66089
C         12.10847        42.30289        -0.27551
C         13.28606        44.48842        -0.35275
C         12.20671        43.59817        -0.76156
C         13.49407        45.71313        -1.09878
C         15.75291        14.65696        -0.49447
C         15.69759        15.94019        -0.04933
C         14.39044        16.68963        -0.05792
C         15.73600        18.85011         0.37903
C         14.53288        18.19453        -0.02647
C         15.77660        20.25430         0.50066
C         14.56074        21.01640         0.31072
C         15.68776        23.11373         1.00303
C         14.47134        22.41203         0.54307
C         15.74468        24.57938         0.85401
C         14.57624        25.28006         0.70242
C         15.77056        27.43060         1.10243
C         14.57651        26.73610         0.76926
C         15.70871        28.80563         1.42074
C         14.54743        29.54914         1.09607
C         15.59374        31.73530         1.99742
C         14.48409        30.98656         1.28640
C         15.79873        33.12116         1.36199
C         14.47630        33.86142         1.42067
C         15.75433        36.05602         1.63075
C         14.53965        35.33247         1.11747
C         15.77642        37.45709         1.49164
C         14.52631        38.16369         1.40219
C         15.78053        40.30220         1.49267
C         14.62688        39.52732         1.72285
C         15.67963        41.78220         1.34169
C         14.35781        42.51007         0.99744
C         15.78075        44.58936         0.30160
C         14.46277        43.93005         0.47926
C         15.82484        45.87356        -0.30092
C         14.65566        46.45369        -0.93591
C         15.93190        48.43192        -1.60893
C         14.73601        47.74310        -1.54384
C         15.98063        49.74626        -2.36249
C         18.22442        10.88686        -2.42899
C         18.16339        11.96422        -1.48691
C         16.98833        12.64371        -1.22945
C         18.15026        14.40756         0.02402
C         16.97276        13.87137        -0.49266
C         18.15379        15.75426         0.62265
C         16.87031        16.56371         0.59675
C         18.31832        18.76644         0.69751
C         16.94054        18.06391         0.73232
C         18.28705        20.27810         0.59486
C         17.04866        20.91657         0.72672
C         18.22953        23.15552         1.13359
C         16.98122        22.35539         1.09721
C         18.26456        24.51375         1.01096
C         17.04425        25.29503         0.60403
C         18.22240        27.35580         1.41824
C         17.04747        26.72081         1.12707
C         18.22398        28.74424         1.93589
C         16.91061        29.48620         1.96327
C         18.22030        31.69896         1.71878
C         16.91753        30.97364         2.11304
C         18.22842        33.15366         2.10764
C         16.92531        33.80824         2.12153
C         18.22221        36.01581         2.23086
C         16.91480        35.34674         2.13555
C         18.16096        37.49516         2.28650
C         16.98037        38.19666         1.74712
C         18.27190        40.33081         1.68258
C         17.01798        39.59770         1.57711
C         18.28174        41.72729         1.16719
C         16.95607        42.46072         0.90548
C         18.24961        44.57473         0.47143
C         16.99241        43.91783         0.62179
C         18.28739        45.90987        -0.01358
C         17.07665        46.54596        -0.45936
C         18.39457        48.48134        -1.31380
C         17.10813        47.81094        -1.11336
C         18.42140        49.95138        -1.70177
C         17.14203        50.63523        -1.98403
C         18.35283        52.76527        -2.18464
C         17.12889        51.97837        -2.19514
C         18.38685        54.03578        -2.73389
C         20.70429         7.72581        -5.23919
C         20.69177         8.67695        -4.24691
C         19.36549         9.07878        -3.65800
C         20.67613        10.81763        -2.27837
C         19.41477        10.30767        -2.78507
C         20.67858        11.81260        -1.30912
C         19.40577        12.31947        -0.78365
C         20.68424        14.34821         0.29034
C         19.39978        13.64590         0.03421
C         20.69293        15.68989         0.59322
C         19.44756        16.47267         0.62298
C         20.83618        18.37958         0.28864
C         19.49966        17.84942         0.48859
C         20.82164        20.56697         0.63169
C         19.48892        21.09483         0.82001
C         20.62115        23.11138         1.88954
C         19.45023        22.40756         1.24390
C         20.79586        24.51369         1.35768
C         19.57498        25.25460         0.86366
C         20.78084        27.43725         1.34863
C         19.52293        26.60402         1.61410
C         20.80764        28.85832         1.74519
C         19.52561        29.52174         2.02498
C         20.70714        31.70430         2.10163
C         19.50093        30.98677         2.06338
C         20.67743        33.14475         2.18158
C         19.43996        33.85472         2.27221
C         20.66383        36.05730         2.68501
C         19.39807        35.32359         2.38603
C         20.72385        37.55151         2.57986
C         19.43417        38.27791         2.47617
C         20.68320        40.44358         2.30436
C         19.42672        39.70076         2.08251
C         20.68865        41.92498         1.89995
C         19.49549        42.53124         1.26546
C         20.73487        44.56957         0.73907
C         19.51033        43.88682         0.81925
C         20.79049        46.07317         0.54051
C         19.54142        46.64016        -0.11378
C         20.81608        48.70786        -0.79799
C         19.58007        47.89340        -0.67714
C         20.71630        50.18184        -0.80219
C         19.58211        50.78391        -1.29782
C         20.76981        52.89689        -1.70689
C         19.56512        52.18068        -1.66427
C         20.84218        54.13463        -2.41983
C         19.62552        54.72759        -2.91713
C         20.92696        56.57233        -3.86773
C         19.68680        55.94081        -3.61357
C         20.99661        57.77078        -4.61498
C         23.16164         5.69537        -7.23628
C         21.94550         6.21587        -6.76963
C         23.16193         7.67995        -5.22866
C         21.92985         7.20176        -5.76817
C         23.15838         8.68943        -4.22618
C         21.92081         9.21969        -3.72492
C         23.16923        10.79206        -2.28065
C         21.92659        10.25107        -2.75734
C         23.20409        11.86253        -1.35119
C         21.94073        12.30239        -0.71183
C         23.26299        14.27082         0.35386
C         21.94384        13.55704         0.16166
C         23.27155        15.70048         0.86198
C         21.93139        16.37655         1.19482
C         23.18308        18.60985         1.15795
C         21.98043        17.81707         0.75008
C         23.14740        20.09285         1.49248
C         21.93688        20.95759         1.32144
C         23.25904        23.05545         1.87194
C         21.91639        22.29335         1.94505
C         23.22999        24.49674         1.66920
C         22.01072        25.18983         1.46991
C         23.31286        27.37911         1.70946
C         22.07027        26.67843         1.29596
C         23.27082        28.81622         1.99057
C         21.99556        29.55295         1.94491
C         23.17813        31.69807         2.44136
C         21.96525        30.98079         2.14799
C         23.18651        33.07968         2.49947
C         21.98368        33.87771         2.00118
C         23.23045        36.12030         2.35148
C         21.95788        35.30205         2.55331
C         23.15812        37.50426         3.07432
C         21.91117        38.25413         2.61231
C         23.16991        40.38603         2.29002
C         21.95608        39.69477         2.41422
C         23.16622        41.78772         1.87172
C         22.00623        42.50397         1.62406
C         23.31092        44.49487         0.66609
C         21.99569        43.80623         0.90744
C         23.37003        45.93396         0.20445
C         22.08447        46.62756        -0.08116
C         23.26867        48.95426        -0.05205
C         22.11710        48.09605        -0.43659
C         23.19240        50.31628        -0.09264
C         21.90040        50.96832        -0.42852
C         23.28530        52.99756        -1.21502
C         21.94768        52.40408        -0.97867
C         23.35943        54.01699        -2.32897
C         22.08869        54.74670        -2.66281
C         23.39473        56.58840        -3.67077
C         22.14328        55.95838        -3.39463
C         23.44115        57.79937        -4.38678
C         22.22815        58.39102        -4.88410
C         23.53138        60.21508        -5.85671
C         22.30851        59.60630        -5.62762
C         24.36968         6.14011        -6.71733
C         25.61630         7.60771        -5.15888
C         24.39843         7.13915        -5.70719
C         25.62648         8.61296        -4.18418
C         24.39167         9.17774        -3.71828
C         25.64148        10.75008        -2.30048
C         24.40320        10.23849        -2.76787
C         25.65959        11.93496        -1.50452
C         24.43396        12.51251        -1.04462
C         25.66831        14.49896        -0.24137
C         24.47368        13.75985        -0.32792
C         25.69433        15.86869         0.25679
C         24.49005        16.52236         0.64565
C         25.67913        18.65881         0.96053
C         24.49444        17.93904         0.91491
C         25.74055        20.07473         1.38996
C         24.45413        20.83374         1.67329
C         25.70655        23.00529         1.57093
C         24.47958        22.30243         1.56079
C         25.71886        24.40834         1.71553
C         24.50964        25.21159         1.30701
C         25.71142        27.26181         2.29059
C         24.46304        26.64037         1.82165
C         25.69232        28.76315         2.54910
C         24.41878        29.48182         2.35411
C         25.69379        31.58135         3.02428
C         24.33510        30.85747         2.98302
C         25.69541        33.07119         3.09162
C         24.38037        33.82191         2.98872
C         25.72714        36.00946         2.90348
C         24.40992        35.33345         2.90351
C         25.82165        37.50820         2.85752
C         24.47949        38.27642         2.88649
C         25.66203        40.29465         2.15223
C         24.44069        39.66971         2.39562
C         25.70901        41.77643         2.21563
C         24.48454        42.44549         1.67438
C         25.70725        44.73064         1.62505
C         24.56676        43.85767         1.18299
C         25.59615        46.25499         1.46794
C         24.67117        46.73148         0.31769
C         25.67636        49.04435         0.78555
C         24.44055        48.24740         0.52040
C         25.67790        50.52423         0.49184
C         24.31758        51.26677         0.35796
C         25.68682        53.25697        -0.70254
C         24.39723        52.50650        -0.59041
C         25.71185        54.62743        -1.39230
C         24.56035        54.89650        -2.32152
C         25.86765        56.74321        -3.29565
C         24.60096        56.04572        -3.07807
C         25.89120        57.90258        -4.07124
C         24.69889        58.46609        -4.61051
C         24.72023        59.66077        -5.35101
C         26.85358         9.08859        -3.61870
C         28.16019        10.52977        -2.05470
C         26.86662        10.11683        -2.70676
C         28.14267        11.96651        -1.59905
C         26.90113        12.59208        -1.24016
C         28.12075        14.63138        -0.62684
C         26.89861        13.90577        -0.69761
C         28.12377        15.99189        -0.19296
C         26.91805        16.58986         0.25401
C         28.12809        18.80921         0.38465
C         27.00201        17.94353         0.91130
C         28.11803        20.21977         0.61565
C         26.95119        20.87497         1.10887
C         28.16674        22.98917         1.26198
C         26.95716        22.26164         1.37600
C         28.24371        24.37367         1.80192
C         26.96099        25.07768         2.25920
C         28.13959        27.40258         1.59867
C         26.95923        26.55983         1.96669
C         28.19767        28.71998         2.37215
C         26.96181        29.52000         2.49198
C         28.18875        31.67435         2.57429
C         26.97680        30.90855         2.64489
C         28.20379        33.12881         2.58961
C         26.96238        33.80694         2.84767
C         28.46469        36.23499         2.28997
C         26.83724        35.20647         3.11575
C         28.20551        37.52625         1.82534
C         27.00159        38.21603         2.25738
C         28.04481        40.30828         1.37928
C         26.89877        39.58087         2.00505
C         28.12248        41.80634         1.42743
C         26.99242        42.52019         2.07531
C         28.29244        44.73593         1.75742
C         26.98194        44.02790         1.96904
C         28.25539        46.21599         1.42485
C         26.95715        46.96317         1.28325
C         28.26352        49.04419         0.72799
C         26.96395        48.28024         0.92477
C         28.08652        50.17384        -0.31473
C         26.97331        51.13139         0.07820
C         28.23421        53.02397        -1.10049
C         26.98737        52.53943        -0.45727
C         28.22093        54.26554        -1.77363
C         27.04367        54.98370        -2.03788
C         27.06829        56.12496        -2.84844
C         29.32917        12.64689        -1.46127
C         30.54927        14.72649        -0.97718
C         29.34990        14.00456        -1.01426
C         30.55393        16.10447        -0.65155
C         29.33784        16.74524        -0.26166
C         30.49834        18.91331        -0.31471
C         29.32219        18.16943        -0.06367
C         30.43949        20.41421        -0.40364
C         29.27933        21.00705         0.35843
C         30.52129        23.16024         0.38596
C         29.30754        22.36111         0.71111
C         30.57922        24.60430         0.74590
C         29.46125        25.20072         1.53141
C         30.66382        27.37204         1.49685
C         29.45286        26.67267         1.61136
C         30.69524        28.78444         1.74285
C         29.52370        29.44826         2.35926
C         30.72758        31.70554         2.08017
C         29.47731        30.94938         2.52199
C         30.59971        33.14950         1.72862
C         29.39172        33.83331         2.11925
C         30.44865        35.97890         0.90249
C         29.29063        35.24239         1.64789
C         30.47106        37.44427         0.81317
C         29.28899        38.18552         1.12411
C         30.44792        40.33360         0.67431
C         29.29590        39.60092         1.05816
C         30.54087        41.74068         0.79985
C         29.40091        42.53260         1.22413
C         30.76850        44.64947         1.18368
C         29.45840        43.90857         1.33650
C         30.62316        46.03009         0.57099
C         29.45170        46.79744         0.74318
C         30.57060        48.74271        -0.24071
C         29.41717        48.14100         0.33237
C         30.55502        50.13468        -0.62107
C         29.39457        50.88118        -0.61551
C         29.38195        52.22944        -1.07055
C         31.74968        16.85755        -0.73687
C         32.95524        19.00311        -0.62826
C         31.73298        18.25322        -0.57793
C         32.98471        20.36521        -0.33694
C         31.76214        21.08830        -0.10987
C         33.04074        23.16827         0.25882
C         31.79901        22.44096         0.17790
C         33.05596        24.56619         0.49456
C         31.88334        25.30070         0.82084
C         33.13521        27.41571         1.06323
C         31.89735        26.67263         1.13010
C         33.12637        28.79902         1.22767
C         31.89791        29.52012         1.52681
C         33.07377        31.70240         1.22694
C         31.87376        30.92726         1.58850
C         32.87517        33.05210         0.55496
C         31.69600        33.79784         1.15166
C         32.93328        36.00306         0.40074
C         31.73253        35.25775         0.95549
C         32.79749        37.40104        -0.03631
C         31.62290        38.09624         0.31145
C         32.90375        40.19055         0.04885
C         31.53524        39.56291        -0.04769
C         32.99274        41.66944         0.19743
C         31.76159        42.44527         0.47571
C         33.02305        44.49954         0.01125
C         31.84289        43.82194         0.51952
C         32.98270        45.86660        -0.19677
C         31.77760        46.63074        -0.00116
C         31.73490        47.97601        -0.40862
C         34.22184        21.07758        -0.20771
C         35.62242        23.04104         0.33266
C         34.26279        22.41986         0.08738
C         35.63624        24.54795         0.18937
C         34.31160        25.32080         0.31844
C         35.61077        27.38412         0.68804
C         34.37548        26.72629         0.73217
C         35.66997        28.80904         0.85616
C         34.45332        29.50205         1.42804
C         35.44067        31.61452         0.22034
C         34.36712        30.98738         1.06948
C         35.31955        33.08818        -0.18526
C         34.23630        33.85117         0.59449
C         35.24559        35.87577        -0.47004
C         34.13180        35.24447         0.01367
C         35.12107        37.23547        -1.12916
C         33.95695        38.05696        -0.58528
C         35.19089        40.18272        -0.98753
C         34.02443        39.44691        -0.58283
C         35.25696        41.55712        -0.86321
C         34.18033        42.35711        -0.34646
C         34.17113        43.73243        -0.40806
C         36.86450        25.26929         0.46222
C         38.07581        27.39856         0.36957
C         36.86444        26.67007         0.48355
C         38.09042        28.81598         0.33511
C         36.84585        29.50483         0.64841
C         37.99922        31.76243         0.20851
C         36.76320        30.93764         0.25908
C         37.91203        33.18007        -0.19461
C         36.62707        33.85635        -0.19164
C         37.80616        36.03535        -0.34843
C         36.54129        35.20941        -0.41810
C         37.61620        37.43877        -0.87011
C         36.42667        38.00478        -1.13372
C         36.33264        39.43032        -1.63945
C         39.23998        29.53126        -0.03571
C         40.40024        31.76545        -0.59063
C         39.31291        30.99755         0.02705
C         40.28234        33.10950        -0.80371
C         39.06246        33.84536        -0.58246
C         38.99827        35.30835        -0.98847
O         19.29493        12.33964         0.66863
O         14.88961        42.45264         2.36016
O         32.68801        35.90535         1.88568
O         18.89612        28.85465         3.23417
O         21.48245        27.21509         0.04819
O         30.22821        24.20498        -0.63181
O         13.52557        40.13520         2.31694
O         29.03481        28.71455         3.54945
O          9.31934        35.27928        -1.12954
O         22.72381        43.66724        -0.37874
O         25.82423        32.26248         4.32435
O         24.72362        48.77543         1.85138
O         17.62953        41.74298        -0.17645
O         17.30832        15.87510         1.81260
O         21.35300        35.44734         3.84369
O         16.17220        22.60209         2.30817
O         26.12506        44.52395         3.02321
O         23.52298        14.57517         1.77202
O         25.64999        27.79903         3.66970
O         26.49666        42.13990         3.40274
O         25.25880        20.29559         2.76950
O         17.61491        18.43969         1.95223
O         18.54287        38.01221         3.61826
O         22.65845        22.51031         3.13813
O         10.98810        24.72744         1.15848
O         29.36516        35.35701         0.17899
O         29.29095        24.50130         2.83893
O         23.63893        53.11205        -3.60300
O         16.57462        34.51973         3.32388
O         33.27350        40.74778         1.34010
O         35.89885        30.90028        -0.97482
O         26.57841        51.13582         1.47765
O         26.41444        53.42066         0.56658
O         20.93863        19.60874        -0.36984
O         27.99296        35.88876         3.54338
O         24.90430        42.76410         0.27640
O         16.15608        33.08683        -0.01525
O         21.74523        48.24588        -1.85688
O         27.63773        41.13471         0.20779
O         34.93184        25.04404        -0.99695
O         21.95554        12.23601         0.76727
O         38.86765        31.52300         1.34509
O         13.44217        44.73842         1.11233
O         20.50717        41.51266         3.30065
O         25.33358        38.16136         4.07702
O         30.44471        31.44419         3.50261
O         28.58238        45.74517         2.79028
O         22.99045        19.08458         2.54124
O         11.75774        34.56310         2.47829
O         34.09653        31.74904         2.28962
O         21.62719        52.12261         0.41609
O         16.83005        30.13903         3.29365
O         11.88306        29.14309        -1.29613
O         22.78766        45.93967        -1.14521
O         24.10839        34.65967         4.16942
O         31.18537        39.62922        -1.46832
H         30.26949        39.29348        -1.57112
O          7.38996        31.36303        -2.27316
H          8.28510        31.07278        -2.54995
O         22.97022        37.30239         4.47416
H         23.85631        37.28884         4.90448
O         38.15143        36.14771         1.06214
H         37.35382        36.42923         1.55700
O         27.35067        17.67341         2.32975
H         26.93694        18.37152         2.88366
O         32.44558        32.81893        -0.80866
H         33.23594        32.84709        -1.40858
O         31.24724        44.88679         2.55433
H         30.50331        45.32490         3.03471
O         23.44199        36.39568         0.95419
H         23.13998        35.61181         0.43456
O         18.69416        48.91224        -2.71382
O         14.83084        35.34809        -0.34132
H         15.38558        34.51533        -0.51242
O         34.69126        34.04781         1.93931
H         34.05507        34.66477         2.37646
O         18.25722        31.60584         0.25526
H         17.47760        32.17838        -0.08845
O         18.37300         9.22106        -4.68443
H         18.67140         9.91703        -5.30467
O         24.94908        46.63810         2.69028
H         25.47277        46.26283         3.43375
O         23.97921        51.74063         1.66599
H         24.82197        52.01228         2.09594
O         20.18833        23.28484         3.27203
H         20.99956        23.36540         3.82517
O          9.14275        33.94468         2.27378
H          9.96829        34.20834         2.75350
O         21.75875        16.32943         2.62049
H         22.15943        15.48753         2.93591
O         22.17333        34.03146         0.53691
H         21.99592        33.16121         0.11821
O         28.39309         9.68070        -0.90867
H         27.65566         9.81321        -0.27762
O         19.57782        26.25285         3.01680
H         19.37948        27.07131         3.53612
O         28.64672        49.65823         1.97780
H         28.54238        48.99901         2.69465
O         36.60168        22.47653        -0.54920
H         36.39770        22.78834        -1.45555
O         13.56846        16.28322        -1.15766
H         13.99621        16.57251        -1.98897
O         20.83722        46.64492         1.89454
H         20.04748        46.33863         2.38927
O         34.81892        36.97859        -2.53761
H         34.07688        36.33953        -2.57877
O         22.54625        52.18917        -3.73234
H         22.03828        52.54315        -4.50274
O         38.88695        35.39606        -2.41196
H         39.62883        34.90130        -2.81496
O         26.88660        24.94842         3.70851
H         27.81105        24.99125         4.04915
O         34.90763        33.10063        -1.58847
H         35.40347        32.36392        -2.02242
O         27.91167        27.85818         0.19555
H         27.89712        27.06510        -0.38287
O         24.58093        25.30900        -0.17453
H         23.80715        25.83420        -0.47466
O         12.61194        31.60588        -1.24325
H         12.35318        30.88684        -1.86668
O         17.07975        25.41669        -0.86206
H         18.02939        25.56160        -1.11198
O         34.68012        29.39258         2.86555
H         34.31928        30.21914         3.27249
O         19.70979        25.45093        -0.57548
H         20.46343        26.08005        -0.72648
O         15.12959        32.00826         3.33765
H         15.41980        31.25853         3.90713
O         23.95788        30.55975         4.35095
H         24.42971        31.20773         4.92885
O         25.38715        46.55071        -0.91810
H         24.71706        46.39519        -1.62440
O         16.13019        49.44475        -3.76575
H         17.03679        49.07158        -3.87481
O         30.16228        20.70700        -1.82655
H         30.16555        21.68404        -1.92739
O         25.53146        55.61916        -0.33197
H         26.03069        55.28138         0.44877
O         27.63649        49.56716        -1.55531
H         28.35046        48.98303        -1.88888
O         37.56162        40.13433        -1.48256
H         37.74025        40.23660        -0.52546
H          5.04161        31.09550        -0.50225
H          4.91987        33.47598         0.18015
H          7.64126        26.97373        -0.96959
H          6.38963        29.03100        -0.97384
H          6.15090        35.72046        -0.12612
H          7.49475        37.91693        -0.40695
H         10.33496        22.63937        -1.40135
H          8.84185        25.02674        -1.38983
H          8.82383        39.88134        -0.94215
H         10.17351        41.95203        -1.20207
H         12.48974        18.41641        -0.64249
H         11.33969        20.55815        -0.82408
H         11.46687        43.97219        -1.48334
H         12.69951        46.07463        -1.76698
H         14.84913        14.20825        -0.93330
H         13.83280        16.38889         0.87333
H         13.82734        48.17381        -1.98821
H         15.01023        50.28958        -2.24243
H         17.28873        10.50825        -2.86607
H         16.06132        12.32070        -1.72566
H         16.19558        52.47653        -2.49987
H         17.46258        54.49250        -3.11747
H         19.74827         7.33899        -5.62227
H         19.01386         8.22671        -3.00884
H         18.76168        56.39435        -3.99883
H         20.06704        58.22402        -4.99026
H         23.15485         4.92330        -8.01839
H         20.99555         5.84848        -7.18331
H         23.57586        61.15130        -6.43068
H         21.38331        60.05856        -6.01279
H         25.31801         5.72355        -7.08587
H         26.56789         7.18035        -5.50818
H         26.85139        58.40437        -4.26508
H         25.67853        60.17039        -5.52655
H         27.79870         8.61714        -3.92689
H         29.01786        10.35813        -2.75227
H         29.16317        54.62567        -2.21652
H         28.03367        56.51133        -3.21101
H         30.27828        12.15958        -1.72886
H         31.48997        14.23559        -1.26702
H         31.50279        50.60102        -0.93001
H         30.31828        52.64697        -1.47323
H         32.69476        16.34722        -0.97400
H         33.89688        18.46587        -0.81297
H         33.85901        46.37777        -0.62187
H         32.63242        48.43954        -0.84338
H         35.16737        20.52957        -0.33254
H         35.94493        22.78037         1.37775
H         36.16146        42.07258        -1.22129
H         35.03373        44.27114        -0.82836
H         37.80256        24.70734         0.57781
H         39.01290        26.84692         0.20310
H         38.52258        38.06081        -0.95560
H         36.12457        39.38021        -2.74409
H         40.13135        28.97657        -0.36587
H         41.31224        31.23425        -0.90053
H         41.13561        33.65836        -1.23229
H         39.94494        35.82273        -0.65449
