         272
 CSIRO Nanostructure Databank - Neutral Graphene Oxide Data Set
C        -11.37278         0.64494         0.33696
C        -10.13641         1.45820         0.40008
C         -8.89229         0.85118         1.00698
C         -7.58139         1.45688         0.66770
C         -6.39778         0.86407         1.44732
C         -5.06098         1.60961         1.18114
C         -3.78061         0.91037         1.60240
C         -2.46402         1.64648         1.35699
C         -1.18433         0.87829         1.61700
C          0.08214         1.37132         0.95164
C          1.36453         0.79554         1.52279
C          2.67173         1.45893         1.24000
C          3.95548         0.70665         1.35335
C          5.12996         1.36538         1.14105
C          6.43892         0.66829         1.24944
C          7.72087         1.41912         1.10663
C          9.00111         0.69797         0.72308
C         10.12513         1.47920         0.07230
C         11.10717         0.72231        -0.73863
C         -9.95064         2.55326        -0.55418
C         -8.72760         3.10668        -0.77983
C         -7.52812         2.57167        -0.13677
C         -6.20871         3.08897        -0.61749
C         -4.98923         2.73858         0.19234
C         -3.64979         3.20712        -0.32824
C         -2.42190         2.90090         0.51601
C         -1.07950         3.60153         0.15705
C          0.10967         2.63927         0.16403
C          1.45557         3.22641        -0.24419
C          2.71000         2.61527         0.28192
C          4.01065         3.40771         0.18071
C          5.11943         2.84783         1.04951
C          6.39474         3.61553         1.14249
C          7.60463         2.85138         0.47421
C          8.88699         3.65725         0.29164
C         10.01789         2.93792        -0.08542
C         -8.64651         4.18972        -1.84398
C         -7.40747         5.04360        -1.72910
C         -6.14864         4.27532        -1.53998
C         -4.84977         5.00779        -1.88967
C         -3.60083         4.31872        -1.33336
C         -2.32922         5.11735        -1.45289
C         -1.04625         4.33914        -1.21350
C          0.21514         5.24778        -1.23439
C          1.51068         4.63185        -0.80358
C          2.75595         5.53589        -0.58099
C          3.81748         4.89597         0.31965
C          5.02712         5.72320         0.59994
C          6.44575         5.24452         1.01159
C          7.56954         5.78968         0.12843
C          8.78108         5.04780         0.02426
C         -7.42796         6.39215        -1.78277
C         -6.16678         7.22829        -1.90160
C         -4.95717         6.45169        -1.40509
C         -3.74525         7.20073        -0.97757
C         -2.40850         6.59469        -1.28622
C         -1.20358         7.42574        -0.90325
C          0.12790         6.76692        -1.24163
C          1.29193         7.61693        -0.82412
C          2.37364         6.92696         0.00533
C          3.63339         7.78770         0.18940
C          4.95794         7.09125        -0.01769
C          6.20720         7.85735        -0.31388
C          7.49828         7.13285        -0.23186
C         -6.23433         8.60751        -1.28454
C         -5.16190         9.29050        -0.85927
C         -3.77581         8.71527        -0.65653
C         -2.67069         9.43802        -1.36656
C         -1.28813         8.85817        -1.51567
C         -0.12399         9.65847        -0.91563
C          1.06644         9.08837        -0.61354
C          2.26774         9.99006        -0.29971
C          3.58441         9.26599         0.01494
C          4.87434         9.95955        -0.29080
C          6.06746         9.33523        -0.38577
C        -11.43434        -0.58833         0.84726
C        -10.26272        -1.39875         1.36341
C         -8.93230        -0.59227         1.48445
C         -7.61320        -1.32495         1.61298
C         -6.29615        -0.67667         1.14729
C         -5.13161        -1.36943         1.95836
C         -3.80260        -0.56070         1.92333
C         -2.51524        -1.36201         1.89734
C         -1.19554        -0.61364         1.81291
C          0.08928        -1.35848         1.32333
C          1.34549        -0.68436         1.85728
C          2.61862        -1.47547         1.82034
C          3.93413        -0.75686         1.63407
C          5.14109        -1.50814         1.13921
C          6.33840        -0.72096         0.68833
C          7.52505        -1.36122         0.06561
C          8.91212        -0.87345         0.54381
C          9.99015        -1.46103        -0.36329
C         11.04515        -0.61844        -0.90848
C        -10.19707        -2.60201         0.39057
C         -9.17222        -3.26680        -0.09966
C         -7.54400        -2.81667         1.85414
C         -6.29820        -3.54396         1.42219
C         -5.01604        -2.79324         1.42512
C         -3.85410        -3.39749         1.05634
C         -2.55489        -2.80861         1.49819
C         -1.26668        -3.44744         0.96284
C         -0.01475        -2.86154         1.70403
C          1.27793        -3.69403         1.51193
C          2.61153        -2.98516         1.63760
C          3.83695        -3.72984         1.16041
C          4.99776        -2.91166         0.64286
C          6.17158        -3.54636        -0.03517
C          7.45873        -2.80991        -0.44082
C          8.74213        -3.61915        -0.12199
C          9.91596        -2.79378        -0.62576
C         -8.33472        -4.11562        -0.67624
C         -7.73575        -5.32229         0.06336
C         -6.38597        -4.85310         0.69547
C         -5.16020        -5.36906        -0.03495
C         -3.83296        -4.72519         0.36934
C         -2.56399        -5.52928         0.35514
C         -1.31263        -4.99978         1.04214
C         -0.03607        -5.58611         0.27771
C          1.23930        -5.09314         0.95724
C          2.49414        -5.75973         0.51152
C          3.69978        -5.10290         0.58241
C          4.97094        -5.78928         0.23990
C          6.24943        -5.03985         0.02821
C          7.40638        -5.70649        -0.64489
C          8.60947        -4.98821        -0.74178
C         -7.45937        -6.46723        -0.88384
C         -6.48191        -7.46708        -0.53376
C         -5.17755        -6.90244         0.09083
C         -3.91193        -7.71996         0.08317
C         -2.59481        -7.02672         0.24270
C         -1.32215        -7.70267        -0.13853
C         -0.09289        -7.09908         0.07109
C          1.16266        -7.78509        -0.18561
C          2.38874        -7.15877         0.08358
C          3.67804        -7.81216        -0.11631
C          4.87232        -7.16969        -0.25269
C          6.05830        -7.91008        -0.87323
C          7.27118        -7.02422        -1.07879
C         -6.31025        -8.71948        -1.30498
C         -5.17955        -9.44413        -1.29616
C         -3.98375        -9.17231        -0.40875
C         -2.68785        -9.60653        -1.04310
C         -1.44057        -9.01395        -0.77256
C         -0.27025        -9.65088        -1.18818
C          1.10124        -9.22014        -0.76217
C          2.06130        -9.35174        -1.95637
C          3.39021        -9.30947        -1.71516
C          4.54072        -9.15207        -2.60014
C          5.69491        -8.55636        -2.21987
O          1.93124        -1.10989         3.09107
O         -2.95539        -4.79205        -0.82647
O         -5.57897        -1.44877         3.30472
H         -5.85377        -0.52844         3.57243
O          4.01443         5.50070         1.61440
O          5.98242        -5.61448         1.33925
O         -3.26972        -7.64826         1.40114
O         -2.57957         2.97770         1.95657
O          1.96955         1.68380         2.50364
O         -8.63445         3.55569        -3.13587
H         -7.79687         3.04084        -3.19059
O         -6.18190        -7.47318         0.91932
O         -2.57269        -2.42438         2.89175
O         -0.10669         1.36523        -0.49791
O         -3.80986         0.44019         2.97974
O         -4.75545         5.00539        -3.32568
H         -4.57618         4.08009        -3.60271
O          1.75295         6.71143         1.28082
H          2.21857         7.26225         1.95065
O         -0.96911         0.30171         2.92387
O          7.18135         2.61624        -0.79852
O         -8.38686        -3.40384         2.52062
O         -0.01395        -5.13015        -1.05082
O          8.84369        -3.87678         1.28410
H          9.01427        -2.99096         1.74923
O          3.73654        -9.19878        -0.34702
O         -5.15483         2.99588         1.60923
O          6.62741        -0.55830        -0.75563
O          1.20645        -4.86952         2.39443
O          5.70559         3.31699         2.32221
O         -1.36421        -5.44911         2.37714
H         -0.65595        -4.99830         2.90304
O         -9.74350         1.74733         1.78632
O          7.24027         1.07371         2.41071
O          5.40476         7.16874        -1.39225
O         -8.25121        -0.70176         2.76039
O         -2.31209         5.99904        -2.61495
O         -3.45854         2.92371        -1.74428
O         10.10923         1.10318         1.51742
O         -0.24321        -2.92139         3.11659
H          0.52320        -2.49714         3.57053
O         -3.52707         8.79534         0.78699
H         -4.16534         8.17687         1.21201
O         -1.16528         7.53416         0.52809
H         -1.97053         8.02744         0.84217
O          1.04718         7.30398        -2.24822
O          1.13990         4.71147        -2.22134
O          2.21153         2.26332        -1.04607
O          3.58041         8.64479         1.36070
O          2.47600        10.86729        -1.41424
H          2.54973        10.33191        -2.23090
O         -6.65356         0.96875         2.81077
O          5.03673        -3.03382        -0.81970
O         -8.59691        -5.79200         1.09386
H         -8.41152        -5.27326         1.91538
O         -6.24770        -4.86516         2.11037
O          9.04828        -1.37264         1.83588
O         -0.95409         3.36165        -2.24309
H         -0.05900         3.42566        -2.65417
O         -6.11813         2.90701        -2.08006
O          7.44158        -2.74791        -1.88047
H          6.72333        -2.11870        -2.12353
O          6.73387         5.69792         2.24568
O         -4.58877         6.50683         0.01112
O          1.43301       -10.17569         0.27545
H          2.40237       -10.09471         0.44937
O          3.37898         5.73459        -1.84804
H          2.66735         5.81096        -2.52725
O        -10.63599        -1.89374         2.64472
H         -9.86587        -2.38986         3.01634
O          3.52940        -3.63287         2.57191
O          4.94783        -1.27337         2.55660
O         -1.27121        -3.06335        -0.41751
H         -0.80529        -3.79321        -0.95535
O          4.54811         3.22048        -1.14494
H          3.82232         2.91099        -1.73620
O         -0.83475         4.61448         1.13852
H         -1.23662         4.32344         1.99231
O          6.49941        -8.96535         0.01782
H          6.65346        -8.56615         0.90026
O         -6.16576        -0.92841        -0.25908
H         -5.37413        -0.47544        -0.61600
O         -5.96121         7.46503        -3.31989
H         -5.68108         6.61277        -3.73191
O          0.29664        -1.15092        -0.08074
H         -0.38372        -1.65073        -0.60171
O         -5.39252        -5.05879        -1.43170
H         -4.50830        -4.93850        -1.85760
O         -1.06504         8.81873        -2.93768
H         -0.16899         8.43320        -3.09378
O         -4.13347       -10.03189         0.75183
H         -3.68322        -9.57449         1.50119
H         11.80913        -1.11476        -1.52698
H         11.90983         1.29777        -1.22380
H         10.85789         3.46304        -0.57085
H          9.68215         5.57235        -0.34001
H          8.39776         7.64134        -0.61946
H          6.97742         9.92867        -0.56335
H          4.82753        11.05250        -0.40936
H          2.01596        10.64491         0.57342
H         -0.22618        10.75332        -0.85699
H         -2.96346        10.14404        -2.16099
H         -5.29615        10.32179        -0.49698
H         -7.20966         9.11721        -1.32634
H         -8.39202         6.91057        -1.90752
H         -9.56130         4.83030        -1.79857
H        -10.82109         2.89704        -1.13303
H        -12.27787         1.12495        -0.06565
H        -12.39494        -1.12554         0.85186
H        -11.19870        -2.99596         0.13081
H         -7.92032        -3.88924        -1.67498
H         -7.99785        -6.54188        -1.84056
H         -7.14276        -9.01672        -1.96084
H         -5.13035       -10.35793        -1.90784
H         -2.68892       -10.59051        -1.53871
H         -0.34530       -10.61751        -1.71033
H          1.66098        -9.39947        -2.97855
H          4.44429        -9.50246        -3.64002
H          6.48941        -8.49377        -2.98233
H          8.15314        -7.51832        -1.51856
H          9.49409        -5.48243        -1.17571
H         10.68669        -3.27904        -1.24657
