         244
 CSIRO Nanostructure Databank - Neutral Graphene Oxide Data Set
C          2.03705         2.34117        -2.75649
C          1.95004         3.71761        -2.56398
C          2.97546         1.58751        -2.04633
C          2.82409         4.37692        -1.67386
C          1.63930         6.57511        -1.85972
C          1.59107         7.95679        -1.68233
C          2.74284         5.81885        -1.43900
C          2.68106         8.66375        -1.13255
C          1.51250        10.87671        -1.25373
C          1.49120        12.24799        -1.05011
C          2.65273        10.10348        -0.94624
C          2.61808        12.93975        -0.54434
C          1.50704        15.16816        -0.71229
C          1.48401        16.56318        -0.54840
C          2.59471        14.37593        -0.30499
C          2.52022        17.23112         0.09910
C          2.54647        18.64955         0.25241
C          3.85889         2.22213        -1.16290
C          3.80759         3.61674        -1.00279
C          4.79021         1.42216        -0.28338
C          4.76375         4.27590        -0.03716
C          3.83992         6.49373        -0.81103
C          3.83272         7.92195        -0.73346
C          4.94521         5.75674        -0.29645
C          4.97757         8.59991        -0.20756
C          3.80501        10.77642        -0.42957
C          3.79032        12.19988        -0.25045
C          4.96516        10.02961        -0.08965
C          4.96404        12.87129         0.25494
C          3.71757        14.99534         0.33865
C          3.61618        16.43195         0.68234
C          4.90565        14.28817         0.58437
C          4.83974        17.16764         1.18807
C          3.67601        19.31786         0.66747
C          4.89963        18.62732         0.95332
C          6.10157         2.14432        -0.06630
C          6.06965         3.52494         0.07602
C          7.31334         1.40732        -0.00130
C          7.26253         4.24428         0.53104
C          6.10873         6.44068         0.12754
C          6.11486         7.85534         0.17246
C          7.33095         5.71731         0.45558
C          7.27149         8.54763         0.83832
C          6.16718        10.72271         0.29468
C          6.13582        12.14861         0.45803
C          7.34314        10.00860         0.52713
C          7.30785        12.78593         1.15193
C          6.11566        14.96405         0.99583
C          6.12694        16.40454         1.48246
C          7.32652        14.28265         1.03816
C          7.37846        17.12603         1.03691
C          6.11878        19.28204         0.93314
C          7.36742        18.57936         0.94294
C          8.55629         2.03411         0.18519
C          8.57361         3.46429         0.55558
C          9.78563         1.35286         0.11277
C          9.82744         4.21906         0.40244
C          8.54444         6.36528         0.65202
C          8.59495         7.82092         0.73319
C          9.81591         5.64749         0.62396
C          9.76209         8.48519         0.99140
C          8.68183        10.68110         0.50730
C          8.62937        12.14358         0.85245
C          9.73739         9.95271         1.33924
C          9.81274        12.82055         1.03591
C          8.58779        14.97841         1.04668
C          8.54920        16.42213         0.89365
C          9.81230        14.28149         1.05840
C          9.76883        17.11724         0.34714
C          8.57001        19.27336         0.84708
C          9.81555        18.59401         0.68550
C         11.02028         2.04706         0.22127
C         11.00129         3.49788         0.23433
C         12.25621         1.37423         0.24844
C         12.26906         4.20305         0.07529
C         11.01179         6.34499         0.81456
C         10.95512         7.70568         1.49442
C         12.27109         5.73382         0.41964
C         12.27977         8.49185         1.49940
C         11.07214        10.68875         1.21124
C         11.06300        12.07307         1.11337
C         12.31036         9.96820         1.33864
C         12.31870        12.84065         1.45187
C         11.07444        14.97519         0.92535
C         11.05961        16.40228         0.64969
C         12.29305        14.27880         0.99722
C         12.22498        17.11069         0.53406
C         11.01104        19.27135         0.61840
C         12.24166        18.56348         0.33863
C         13.49958         2.07127         0.30987
C         13.51268         3.46980         0.23224
C         14.75837         1.34933         0.31681
C         14.80686         4.22791         0.08489
C         13.56667         6.33186         0.79594
C         13.57279         7.74453         1.24518
C         14.74662         5.65814         0.60062
C         14.79509         8.51993         0.99136
C         13.55442        10.64661         1.24305
C         13.59233        12.09181         1.12447
C         14.78870         9.90280         1.13495
C         14.76456        12.80864         0.87093
C         13.54474        14.94384         0.79852
C         13.51608        16.41806         0.66139
C         14.75044        14.23422         0.70287
C         14.71060        17.12019         0.10448
C         13.36692        19.20663        -0.10694
C         14.48570        18.39718        -0.70626
C         15.96573         2.00613         0.44232
C         15.93999         3.47854         0.79446
C         17.22736         1.34471         0.36435
C         17.25622         4.18043         0.57870
C         16.01547         6.33423         0.78858
C         16.01680         7.75258         0.88571
C         17.25052         5.62360         0.70705
C         17.24708         8.42318         1.00728
C         16.07887        10.64600         1.10913
C         16.08624        12.12885         0.89579
C         17.28282         9.86863         0.66652
C         17.29785        12.78548         0.30672
C         16.07346        14.98391         0.52761
C         15.85848        16.25142        -0.29147
C         17.23224        14.16941        -0.01183
C         16.98131        16.91896        -1.00357
C         15.80288        19.10855        -0.89657
C         16.95809        18.41012        -1.09217
C         18.43551         2.04552         0.35869
C         18.43421         3.49972         0.42396
C         19.69258         1.36230         0.27820
C         19.69490         4.28074         0.10592
C         18.47683         6.30070         0.91353
C         18.38937         7.65345         1.23308
C         19.83549         5.60441         0.89257
C         20.18542         8.71036         0.53312
C         18.51130        10.59167         0.18647
C         18.48208        12.07125         0.11692
C         19.81177         9.89693        -0.05313
C         19.78078        12.78340        -0.16126
C         18.34816        14.78982        -0.66800
C         18.28290        16.18847        -1.27441
C         19.57437        14.14875        -0.76198
C         19.52276        16.98633        -0.84694
C         18.22516        19.08607        -1.29802
C         19.43226        18.44262        -1.26196
C         20.89415         2.04152         0.23880
C         20.96096         3.45945         0.21103
C         22.15983         4.16006         0.11454
C         21.05513         6.37513         0.27612
C         21.13512         7.78024        -0.00425
C         22.17203         5.56800         0.01395
C         22.05432         8.36142        -0.95104
C         20.74254        10.46937        -1.02958
C         20.77567        12.00593        -1.04388
C         21.90211         9.64677        -1.39718
C         22.06102        12.73467        -1.21005
C         20.73252        14.78182        -1.52865
C         20.78221        16.29357        -1.33663
C         22.04470        14.07283        -1.27696
C         21.87190        17.03340        -1.66669
C         20.66728        19.15414        -1.50182
C         21.83938        18.47919        -1.66075
O         13.09314         8.00239         2.63156
O         15.92356        16.17555        -1.75643
O          3.79251        16.75456         2.12431
O         17.49676        10.03224        -0.78219
O         14.47996        17.17986         1.53412
O          7.83812         3.73607         1.79425
O         16.32888        11.53459         2.23775
O         19.53196         8.30596         1.70694
O         12.28867         5.23398        -0.97239
O         20.19871        11.28953        -2.13754
O         10.63010         7.49111         2.91163
H         11.49169         7.32010         3.36501
O         12.30083        12.92423         2.93245
H         12.48276        12.02398         3.27882
O         18.33859        16.08458        -2.72339
H         17.45363        15.76817        -3.01540
O         16.49790        15.41779         1.85064
H         15.79822        16.02752         2.19426
O         20.50046        14.55448        -2.95050
H         19.67978        15.05722        -3.18987
O         19.57013         4.68322        -1.29055
H         19.38603         3.88031        -1.82120
O          6.22338        16.31572         2.93698
H          5.30463        16.17224         3.26323
O         19.53636        16.95856         0.60721
H         20.31673        17.46765         0.91079
O         15.10534         4.29769        -1.33363
H         14.32065         4.70263        -1.76734
O         20.47998        12.92632         1.12951
H         19.91003        13.47465         1.71102
O          4.15308         1.25738         0.99957
H          3.98750         2.16438         1.35391
O          6.96802         8.51367         2.28850
H          7.64963         9.08617         2.72499
O         15.63347         3.56783         2.21694
H         16.34220         3.10173         2.70768
O          7.08912        12.50419         2.58896
H          7.81851        12.93212         3.08698
O          9.62433        17.05424        -1.11848
H          8.88069        17.64506        -1.36277
O         20.18137         5.29118         2.25719
H         20.23794         6.13674         2.75081
O         14.00143        18.00310        -2.02555
H         14.64661        17.34401        -2.38200
O          9.16014        10.57678        -0.87821
H          8.53594        11.06941        -1.45158
O          4.13225         4.16629         1.29694
H          4.75468         4.55781         1.94794
O          9.35228        10.00995         2.74452
H          9.82349         9.26305         3.19340
H          1.35067         1.84360        -3.45584
H          1.19448         4.28865        -3.12069
H          3.01923         0.49610        -2.17207
H          0.77700         6.07611        -2.32271
H          0.68795         8.49296        -2.00299
H          0.60850        10.39408        -1.64850
H          0.56712        12.79385        -1.28186
H          0.65583        14.70137        -1.22475
H          0.63533        17.13766        -0.94710
H          1.65877        19.22274        -0.05357
H          4.96193         0.40170        -0.70700
H          3.68708        20.41782         0.66982
H          7.28198         0.32207        -0.18046
H          6.13843        20.37326         0.79025
H          9.79316         0.26293        -0.03594
H          8.56537        20.37303         0.89450
H         12.26527         0.27458         0.23356
H         11.03278        20.36861         0.70311
H         14.73634         0.25888         0.16697
H         13.35926        20.29812        -0.24781
H         17.24447         0.24987         0.24591
H         15.81928        20.20847        -0.94389
H         19.68882         0.26248         0.27137
H         18.19628        20.17141        -1.48328
H         21.83656         1.47284         0.22273
H         23.11191         3.61093         0.05918
H         23.12958         6.05070        -0.23383
H         22.87627         7.75227        -1.35403
H         22.59951        10.04990        -2.14484
H         23.00841        12.17713        -1.15065
H         22.98667        14.63826        -1.32771
H         22.80015        16.54766        -2.00125
H         20.63175        20.24900        -1.60408
H         22.76946        19.02533        -1.87126
