         260
 CSIRO Nanostructure Databank - Neutral Graphene Oxide Data Set
C         30.43524        32.24849         1.57012
C         30.56423        33.51049         1.60212
C         30.78881        36.68346         1.45375
C         30.74863        37.78373         0.88754
C         30.47229        40.51507        -1.34910
C         30.45067        41.75327        -1.55495
C         32.64596        29.31060         1.30245
C         31.56139        29.90148         1.45922
C         32.79091        31.98467         1.54227
C         31.50133        31.34000         1.52365
C         32.90361        33.40728         1.49217
C         31.73788        34.25537         1.57463
C         32.84273        36.07255         0.39729
C         31.94629        35.74528         1.61771
C         32.70800        37.31447        -0.44078
C         31.28763        38.14475        -0.46886
C         32.66781        39.90417        -1.56146
C         31.46309        39.54886        -0.98976
C         32.74771        42.12932        -2.14016
C         31.44500        42.71600        -1.79536
C         32.72968        44.71738        -1.43945
C         31.65996        44.07036        -1.43182
C         35.23346        27.63234         0.50287
C         35.11201        28.97045         1.00265
C         34.01534        29.69919         1.36553
C         35.40345        31.88125         1.85380
C         34.04574        31.17813         1.74420
C         35.42218        33.36124         1.45485
C         34.19476        34.02935         1.24919
C         35.32939        36.27220         0.65813
C         34.17390        35.31313         0.39530
C         35.31594        37.49052        -0.27136
C         34.04288        37.90971        -1.02398
C         35.20843        40.17464        -1.61821
C         33.98300        39.47372        -0.98964
C         35.26396        41.85791        -2.13912
C         33.98954        42.69019        -1.92652
C         35.28520        44.69191        -0.84923
C         34.07585        44.14961        -1.56578
C         35.38623        45.80617         0.10189
C         37.58365        27.50996        -0.23011
C         36.23262        26.98714         0.16614
C         37.68955        28.88545         0.51902
C         36.49956        29.50348         1.19777
C         37.97664        31.44162         1.64073
C         36.60922        30.91616         1.72960
C         37.93548        33.64965         1.42708
C         36.62194        34.10714         1.16751
C         37.81492        36.15355         0.10652
C         36.56916        35.42290         0.46398
C         37.76319        37.65658         0.02036
C         36.45447        38.22897        -0.42909
C         37.81763        40.28327        -1.26444
C         36.51014        39.50246        -1.22847
C         37.76460        41.75714        -1.43567
C         36.41688        42.41629        -1.28121
C         37.60798        44.20764         0.20039
C         36.38824        43.70299        -0.50942
C         37.45802        45.22424         1.28262
C         36.26067        46.01302         0.94537
C         40.08561        24.63905        -0.36521
C         39.03442        25.29464        -0.25272
C         40.16533        27.34612         0.29269
C         38.78545        26.66138         0.17352
C         40.11806        28.82766        -0.17635
C         38.90257        29.53067         0.46519
C         40.18928        31.73260         0.50528
C         39.03828        30.88696         0.98578
C         40.23165        33.23900         0.43713
C         39.08693        34.10317         0.79300
C         40.38480        36.19682         0.12194
C         39.11653        35.52375         0.45383
C         40.29172        37.55884        -0.47615
C         39.07116        38.37670        -0.16212
C         40.36475        40.47696        -1.10543
C         39.08201        39.87163        -0.50506
C         40.33964        41.85821        -1.22588
C         39.00702        42.62548        -1.18826
C         40.08460        43.91236         0.81717
C         38.81415        43.32100         0.17900
C         40.00295        44.97289         1.88629
C         38.65057        45.67502         2.09305
C         39.79689        47.86135         2.62813
C         38.85795        47.05753         2.52621
C         42.71999        24.70541        -0.53021
C         41.39535        25.22741        -0.33064
C         42.72221        27.27446         0.38491
C         41.42645        26.56999         0.06543
C         42.71359        28.78283         0.43277
C         41.48089        29.56984         0.06853
C         42.76013        31.77872         0.83173
C         41.52149        31.04026         0.36013
C         42.82830        33.24781         0.52719
C         41.55517        33.91631         0.08765
C         42.88182        36.14342        -0.21339
C         41.60964        35.38929        -0.15348
C         42.86512        37.45082        -0.61375
C         41.58046        38.20305        -0.83723
C         42.82416        40.13907        -1.46705
C         41.59349        39.67562        -1.08139
C         42.90130        42.33623        -1.31768
C         41.50715        42.79875        -1.08231
C         42.61444        44.48415         0.55099
C         41.36249        43.83550         0.02282
C         42.49971        45.42047         1.69428
C         41.28564        45.63716         2.30671
C         42.35592        48.33845         2.57006
C         41.17166        47.75344         3.03270
C         43.83223        25.23944        -0.43541
C         45.34974        27.32742         0.11326
C         44.08263        26.54110         0.20036
C         45.28751        28.83172         0.24830
C         43.98398        29.60468         0.31083
C         45.31575        31.79518         0.63087
C         44.04702        30.97392         1.02254
C         45.27348        33.20483         0.12786
C         44.12513        33.92544         0.20032
C         45.20134        35.90026        -1.05133
C         44.21266        35.44349         0.06511
C         45.31407        37.43680        -0.94434
C         44.14951        38.13292        -0.84061
C         45.33245        40.45801        -1.21600
C         44.07770        39.63327        -0.78006
C         45.25083        41.78988        -0.45961
C         44.00931        42.63562        -0.57367
C         45.19250        44.38052         0.89904
C         43.96269        43.87561         0.23781
C         45.05326        45.57174         1.90230
C         43.69169        46.23485         1.95165
C         43.30418        47.42149         2.48982
C         47.55954        27.50763        -1.22027
C         46.57702        27.07107        -0.64072
C         48.33326        28.67921        -1.72008
C         46.44773        29.55254         0.75041
C         47.71031        31.51470        -0.40407
C         46.56596        30.99992         0.44738
C         47.74604        32.99233        -0.58806
C         46.61884        33.91194        -0.08083
C         47.83098        35.96583        -0.81180
C         46.57225        35.13309        -1.08605
C         47.82350        37.32885        -0.66173
C         46.62083        38.14743        -1.01013
C         47.85670        40.40439        -0.45660
C         46.65291        39.67458        -0.97620
C         47.83854        41.75933        -0.11784
C         46.51097        42.45901         0.02705
C         47.66295        44.68209         0.55215
C         46.39880        43.88246         0.47790
C         47.38109        45.94572         1.24677
C         46.27593        46.38033         1.59033
C         50.03283        28.65606         0.19173
C         49.10311        29.39368        -0.64768
C         49.99188        31.52783         0.54910
C         48.98093        30.73407        -0.29273
C         50.28015        32.83809        -0.24086
C         49.11534        33.63393        -0.74256
C         50.36646        35.93300        -0.47789
C         49.13158        35.20177        -0.86805
C         50.18789        37.30018         0.10054
C         49.14717        38.10219        -0.69783
C         50.29674        40.32340         0.33808
C         49.11770        39.63561        -0.41064
C         50.15350        41.73265         0.79083
C         49.01711        42.44243         0.38648
C         50.15996        44.45387         1.20066
C         48.96889        43.95166         0.51438
C         51.06016        29.31764         0.58411
C         52.43965        31.41515         0.58757
C         51.31078        30.65100         0.84449
C         52.65522        32.58758         0.15238
C         51.57924        33.21457        -0.57141
C         52.70007        36.10319        -0.00079
C         51.62819        35.41755        -0.70166
C         52.52617        37.17548         0.60146
C         51.34896        38.00460         0.78357
C         52.15495        40.22553         1.74551
C         51.36875        39.46212         0.94742
C         52.18857        41.47064         2.08100
C         51.23485        42.34603         1.59850
C         50.99423        43.74377         1.78489
O         39.36829        26.98332         1.45693
O         46.35200        31.73253         1.70123
O         51.83419        34.26930        -1.44149
O         36.63314        29.77442         2.64455
O         41.27981        46.37130         3.51072
O         45.00022        26.60461         1.31243
O         39.95228        28.76685        -1.56063
O         35.90192        42.42477         0.10807
O         34.63975        31.53708         3.03745
O         49.43393        37.93158        -2.05282
O         32.70421        40.81141        -2.62598
O         41.52853        34.43130        -1.26752
O         39.94729        36.19817         1.51175
O         39.03106        40.45109         0.82190
O         42.62423        32.74474         1.91008
O         50.24756        37.39073         1.55683
O         37.99144        40.89037        -2.58240
O         32.29259        35.99035        -0.94274
O         40.10946        43.53852         2.22915
O         41.18246        44.18352        -1.37622
O         38.14112        32.62560         2.34565
O         44.69979        29.52336        -0.91965
O         39.81915        32.40937        -0.73132
O         43.41356        45.01933        -0.54096
O         48.25811        29.06659        -2.86004
O         46.92045        38.92234        -2.21525
O         38.47255        38.20024         1.16401
O         45.65204        41.64048         0.92928
O         49.27973        34.31116        -2.01923
O         41.76835        30.52579        -0.98153
O         48.46205        44.65346        -0.64360
O         47.33735        32.09763        -1.67432
O         42.91818        41.28198        -2.24311
O         35.90816        39.37038        -2.56814
O         35.10567        44.92917        -2.24360
O         50.23390        40.24896        -1.11365
O         37.63772        44.83589         2.67940
O         42.63759        28.01111         1.65532
O         37.07980        35.43176        -0.91556
O         40.69626        37.57589        -1.86774
O         33.96728        39.82813         0.41662
H         34.35922        40.72122         0.54121
O         35.26790        36.72627         2.01490
H         35.95456        37.40952         2.16507
O         45.20475        45.00792         3.20799
H         46.12085        44.67727         3.31574
O         35.55626        41.81207        -3.50091
H         36.22833        41.10280        -3.65090
O         44.14991        30.63972         2.40938
H         43.87765        31.42885         2.93095
O         38.29567        42.28153         1.04331
H         38.66804        42.42121         1.95622
O         46.68661        34.62271        -2.41793
H         47.63958        34.43717        -2.62867
O         47.03201        34.44407         1.18992
H         46.90721        33.74190         1.86856
O         32.69898        36.08458         2.77445
H         32.19751        35.82177         3.57317
O         44.49884        35.65097        -2.26919
H         45.15734        35.35330        -2.94264
O         30.45256        37.56773        -1.44256
H         30.53934        36.58818        -1.38561
O         34.15056        37.47843        -2.37264
H         34.31930        36.50922        -2.36503
O         44.66645        35.89935         1.35820
H         44.83012        36.86541         1.30967
O         34.41635        34.82827        -0.94526
H         33.58196        34.44531        -1.29462
O         38.95066        43.64029        -2.19738
H         39.23263        43.25339        -3.05228
O         37.57821        27.71590        -1.62518
H         38.45287        28.14844        -1.88231
O         43.86096        39.92612         0.63613
H         43.11945        39.37571         0.96663
O         47.27982        28.97652         1.56339
H         47.99331        29.58080         1.87043
O         45.27747        40.75999        -2.60588
H         45.77537        40.06136        -3.09331
O         49.33179        31.84432         1.79219
H         49.91800        32.42856         2.31884
