         320
 CSIRO Nanostructure Databank - Neutral Graphene Oxide Data Set
C         30.49981        31.59953        -0.44675
C         30.53315        32.80929        -0.67550
C         30.68607        35.82559        -1.54972
C         30.85728        37.05472        -1.95446
C         30.84031        40.15365        -2.74662
C         30.93092        41.40666        -2.88999
C         32.69690        28.91384         1.01429
C         31.66784        29.42120         0.54698
C         32.80693        31.55785         0.25817
C         31.27033        30.86526         0.58673
C         32.83043        33.07741         0.10873
C         31.49731        33.83087        -0.13167
C         32.98657        35.78988        -1.02038
C         31.64584        35.09512        -0.92107
C         33.03730        37.31855        -1.02925
C         31.82988        37.96411        -1.77572
C         33.14638        40.16401        -1.86937
C         31.82485        39.42052        -1.94076
C         33.37342        41.48201        -2.62998
C         32.02509        42.27281        -2.96882
C         33.38295        44.25487        -2.87892
C         32.27414        43.62701        -3.02096
C         35.36004        27.43032         2.02482
C         35.08312        28.89398         2.12136
C         34.10048        29.41869         1.05293
C         35.17504        31.74502         1.20108
C         33.83581        31.02084         1.28199
C         35.33608        32.91588         0.22149
C         34.03975        33.69586         0.02319
C         35.46020        35.82088        -0.33304
C         34.20157        35.06169        -0.55924
C         35.67949        37.12117        -1.06990
C         34.39627        37.87295        -1.49054
C         35.58894        40.15624        -1.27291
C         34.43154        39.37884        -1.70940
C         35.30314        41.60064        -0.90330
C         34.40147        42.34272        -1.89616
C         35.55920        44.52863        -1.54962
C         34.40740        43.72197        -2.00596
C         35.58312        45.95079        -1.17858
C         37.79448        27.30112         2.10604
C         36.39134        26.76915         1.92294
C         37.66011        28.72118         1.41144
C         36.46254        29.55707         1.84845
C         37.69166        31.64874         1.00989
C         36.45237        30.99060         1.53889
C         37.73050        33.13350         0.87897
C         36.54280        33.78221         0.56941
C         37.75740        35.98433         0.66524
C         36.53452        35.19797         0.24880
C         37.81490        37.41716         0.16701
C         36.76800        38.00286        -0.47104
C         37.93104        40.22936        -0.20477
C         36.89382        39.44124        -0.99846
C         37.82531        41.69901        -0.04205
C         36.56265        42.38871        -0.47531
C         37.74882        44.59555        -0.07099
C         36.68958        43.85211        -0.81217
C         37.64866        46.11179         0.26873
C         36.48033        46.53979        -0.57116
C         40.13836        24.40944         1.14705
C         39.20557        25.18187         1.52256
C         40.08800        27.21215         0.80453
C         38.91937        26.54376         1.46503
C         40.12654        28.74381         0.71269
C         39.01272        29.45674         1.57514
C         40.24831        31.64228         1.10174
C         38.96120        30.88979         1.06054
C         40.23174        33.09862         0.79084
C         39.02989        33.78617         0.81263
C         40.35535        35.93455         0.28008
C         39.04832        35.22024         0.41114
C         40.38571        37.44563         0.02162
C         39.09792        38.14855         0.54630
C         40.42087        40.30230         0.04365
C         39.08316        39.60630         0.15959
C         40.40420        41.79653         0.28917
C         39.07207        42.51113         0.38675
C         40.28558        44.67415         0.28652
C         39.08793        43.91790        -0.29461
C         40.21913        46.15830         0.45029
C         38.93902        46.84855        -0.12212
C         40.04425        48.91518         0.78097
C         39.08215        48.25475         0.38342
C         42.54258        24.43988         0.09244
C         41.54187        24.95529         1.10025
C         42.66827        27.23138         0.34032
C         41.40485        26.45811         0.64847
C         42.65459        28.58658         0.34223
C         41.52102        29.30385         1.08690
C         42.62217        31.61128         0.23870
C         41.51323        30.85725         0.97741
C         42.70080        33.06161         0.68811
C         41.53384        33.77568         0.74708
C         42.89326        35.92599         0.34201
C         41.58388        35.28664         0.91591
C         42.91030        37.41891         0.67269
C         41.63041        38.15582         0.55134
C         42.90810        40.27641         0.59960
C         41.59387        39.52216         0.61181
C         42.76512        41.77422         1.02404
C         41.56001        42.48930         0.43358
C         42.84207        44.76944         0.60586
C         41.62809        43.98309         0.05225
C         42.67625        46.15364         1.23456
C         41.50746        46.94417         0.59948
C         42.63000        48.90501         1.53410
C         41.43987        48.46361         0.79616
C         43.49145        25.08323        -0.36240
C         44.92532        27.19872        -0.90206
C         43.97898        26.44561         0.03580
C         45.12182        28.69173        -0.40652
C         43.73838        29.40894        -0.34868
C         45.18449        31.52154         0.12956
C         43.88652        30.75972         0.40478
C         45.27100        32.96650         0.52392
C         44.02241        33.70224         1.08210
C         45.37535        35.85407         1.33309
C         44.11248        35.18330         0.82933
C         45.43604        37.35206         0.86013
C         44.07963        38.06625         0.96210
C         45.30394        40.29844         1.23993
C         44.00037        39.53946         1.40351
C         45.30977        41.77277         1.07042
C         44.06563        42.52629         0.80180
C         45.14767        44.61916         1.88653
C         44.08241        44.02642         0.96176
C         45.11615        46.13833         1.99277
C         44.07489        46.92400         1.22222
C         43.67314        48.28447         1.75356
C         47.26876        27.45426        -1.37403
C         46.37470        26.67330        -0.90803
C         47.46719        28.81359        -1.50813
C         46.09467        29.51468        -1.30231
C         47.58014        31.66663        -0.78900
C         46.25349        30.95936        -0.78602
C         47.75001        32.94117         0.07258
C         46.44331        33.81562        -0.00766
C         47.89683        35.49951         0.95260
C         46.61678        35.06240         0.82972
C         47.94410        37.67951         1.21950
C         46.57208        38.21336         1.57419
C         47.81609        40.33849         0.98207
C         46.48414        39.66081         1.18710
C         47.73263        41.82807         0.73774
C         46.58193        42.50391         1.36719
C         47.63537        44.71316         0.80967
C         46.54942        44.00076         1.52918
C         46.73493        47.33761         3.67690
C         45.94863        46.75975         2.86850
C         49.89761        29.09418        -2.37946
C         48.54117        29.66810        -2.10703
C         50.01469        31.76070        -1.47380
C         48.84959        30.83896        -1.04330
C         50.27188        32.89237        -0.45727
C         49.01660        33.72632        -0.26151
C         50.14275        35.96576        -0.12574
C         49.06519        35.03979         0.19081
C         49.97399        37.39682        -0.25875
C         48.80374        38.14706         0.26230
C         49.93198        40.33005        -0.37699
C         48.57736        39.61013        -0.14327
C         49.76388        41.85563        -0.69849
C         48.73395        42.55522         0.17180
C         49.79677        44.56629        -0.52302
C         48.64205        44.02304         0.16008
C         50.97454        29.70136        -2.49380
C         52.39625        31.91038        -2.11459
C         51.49661        30.81250        -1.66641
C         52.42116        33.05389        -1.64001
C         51.49677        33.79747        -0.78072
C         52.36454        36.18033        -1.26570
C         51.41478        35.28763        -0.57908
C         51.95350        37.33801        -1.50559
C         50.90991        38.15437        -1.04876
C         51.86462        40.47337        -1.72637
C         50.68715        39.56479        -1.51872
C         51.96532        41.70500        -1.66441
C         51.19085        42.60291        -0.73845
C         50.74553        44.00816        -1.10620
O         46.65398        31.83320        -1.88772
O         46.93125        43.12002         2.64824
O         40.01411        45.25918         1.57797
O         33.82017        35.12121        -2.01606
O         41.12459        31.41050         2.26895
O         36.76314        42.09114         0.94257
O         43.96979        44.69857        -0.32021
O         38.24290        31.01725        -0.20841
O         32.26275        40.16256        -0.72590
O         34.53520        38.38889        -2.83153
O         36.35276        36.76929        -2.42593
O         45.72295        31.93240         1.42687
O         52.02486        34.39298         0.41844
O         40.47242        26.58753        -0.47338
O         36.74847        44.11924        -2.28386
O         44.89065        42.13211        -0.31921
O         39.74329        35.29269        -0.88205
O         41.81610        47.87566        -0.47787
O         48.21533        36.49057         1.89161
O         35.77340        31.91734         2.50073
O         37.67231        36.03065         2.12051
H         36.78244        36.35440         2.37190
O         37.45096        28.39554         0.02894
H         37.54267        29.22506        -0.50032
O         44.06684        33.50294         2.54401
H         44.45749        32.60019         2.67481
O         35.62416        32.29837        -1.07444
H         35.93810        33.00083        -1.68569
O         45.70598        28.68483         0.90767
H         45.61510        27.77738         1.29546
O         45.77058        37.27876        -0.55010
H         45.86993        38.19658        -0.89423
O         41.51812        35.59709         2.31833
H         42.22767        35.09673         2.77694
O         39.24220        38.15263         1.98644
H         38.44734        38.56136         2.38624
O         50.76454        40.15469         0.76614
H         50.23691        40.33035         1.58280
O         34.63059        29.23035         3.42822
H         35.24204        28.82058         4.07562
O         45.55117        29.58823        -2.63356
H         45.90590        30.41801        -3.03753
O         37.42243        46.32862         1.64849
H         36.56803        45.92650         1.90428
O         44.38563        27.16984        -2.19971
H         44.95940        27.70814        -2.79366
O         43.31983        40.22019        -0.78130
H         42.52301        40.42826        -1.33434
O         45.34336        35.82670         2.78121
H         45.01805        34.92371         3.04041
O         44.63757        26.28166         1.29945
H         44.03352        25.77084         1.89032
O         39.04726        46.83674        -1.53511
H         39.81221        47.39366        -1.79820
O         39.29745        29.49461         2.96615
H         40.16267        29.95438         3.10349
O         47.73588        39.69308        -1.30866
H         48.26885        39.36051        -2.07795
O         43.66015        39.51624         2.80346
H         44.40770        39.07546         3.27084
O         34.73147        29.21680        -0.18528
H         34.07923        29.40720        -0.89973
O         32.90502        37.72057         0.35160
H         32.66680        38.68399         0.36588
O         41.76559        28.96545         2.46817
H         42.57363        29.46939         2.73320
O         33.27904        31.25522         2.57188
H         33.98097        31.07431         3.24287
O         49.72660        32.37306        -2.70071
H         49.20662        31.75477        -3.26857
O         39.26182        43.68140        -1.69383
H         39.05361        44.50584        -2.18513
O         38.98503        42.72110         1.80933
H         38.07240        43.02678         2.01538
O         51.76882        42.61270         0.52693
H         52.72202        42.81917         0.45834
O         42.81113        35.77010        -1.10375
H         43.57669        36.24163        -1.49690
O         46.36418        38.19059         2.99790
H         46.40072        37.24652         3.28972
O         49.23609        41.95981        -2.04251
H         48.27747        41.74149        -2.00847
O         46.17528        34.23021        -1.35821
H         45.99843        35.19715        -1.36043
O         40.43033        37.62981        -1.41191
H         40.04513        36.81900        -1.82701
O         36.39681        35.34828        -2.63310
H         35.50204        35.16151        -3.02195
O         33.95428        41.09198        -3.88153
H         34.25533        41.89602        -4.35508
O         48.08240        30.26860        -3.33130
H         48.02190        29.56567        -4.01218
O         48.56307        40.16511         2.21890
H         48.06590        40.60836         2.93977
O         40.66623        40.28107        -1.41735
H         40.48843        39.35391        -1.73298
O         37.51945        39.30607        -2.32398
H         36.92472        38.74536        -2.87497
O         39.90259        29.10446        -0.65473
H         40.07856        28.30364        -1.20398
O         50.56853        32.29102         0.82094
H         51.06903        32.96044         1.34530
O         33.11507        31.06708        -1.05683
H         33.92315        31.53539        -1.38695
O         49.14868        30.20676         0.20035
H         50.11609        30.01644         0.24540
O         38.00886        27.43900         3.50098
H         38.31191        26.58119         3.86255
O         31.03014        34.19538         1.17664
H         30.13385        34.58253         1.09116
O         49.93512        39.50205        -2.73380
H         49.86017        40.43190        -3.06416
O         47.97119        32.57852         1.44785
H         48.77607        32.00447         1.47436
O         42.56261        41.86158         2.45145
H         41.76609        41.34594         2.69704
O         44.53514        47.10444        -0.09822
H         45.41647        47.53076        -0.07523
O         42.28360        31.70303        -1.15625
H         41.50916        32.29470        -1.26044
O         42.35503        45.92550         2.60745
H         42.18327        46.78230         3.05215
O         43.26126        29.59909        -1.67865
H         43.23077        28.71829        -2.11941
O         42.17119        24.91266         2.36717
H         42.18451        23.98549         2.68463
O         44.78572        44.17584         3.19917
H         45.50233        44.41705         3.82514
O         43.91861        30.41527         1.81411
H         44.75286        29.89410         1.94454
O         47.52472        46.05681         0.67042
H         48.30413        46.38381         0.17147
O         30.75860        31.20898         1.82180
H         31.43563        31.02493         2.51504
O         41.78967        43.98572        -1.38105
H         42.75150        43.88289        -1.57165
O         34.43995        41.51322         0.28004
H         35.03163        41.52973         1.07065
O         51.88994        30.33241        -0.41176
H         52.72916        29.83467        -0.49563
