         424
 CSIRO Nanostructure Databank - Neutral Graphene Oxide Data Set
C          1.16036         2.03560         0.34690
C          1.14670         3.43582         0.46527
C          2.34702         1.34996         0.15031
C          2.33264         4.18243         0.39125
C          1.16588         6.40665         0.63846
C          1.17166         7.80583         0.68716
C          2.34219         5.64056         0.45936
C          2.33793         8.55280         0.46652
C          1.21301        10.76567         0.44803
C          1.23419        12.14649         0.46370
C          2.40491         9.99514         0.51280
C          2.44616        12.87243         0.59140
C          1.27917        15.08458         0.44777
C          1.30943        16.46493         0.32288
C          2.47164        14.31523         0.65063
C          2.49387        17.19455         0.53949
C          2.56403        18.58229         0.29932
C          3.57916         2.05626         0.08052
C          3.56962         3.48462         0.20575
C          4.80430         1.37620        -0.11809
C          4.80526         4.19043         0.16914
C          3.57856         6.32600         0.32801
C          3.56096         7.79404         0.19662
C          4.80851         5.62318         0.25394
C          4.88114         8.54713         0.33606
C          3.65196        10.69089         0.64170
C          3.66891        12.13883         0.71763
C          4.88591         9.97965         0.67503
C          4.88670        12.83654         0.86702
C          3.69953        14.99295         0.83500
C          3.64900        16.47223         1.19023
C          4.92182        14.26241         0.88915
C          4.98512        17.20440         1.03551
C          3.76089        19.28144         0.34272
C          5.00262        18.61774         0.57372
C          6.02680         2.06714        -0.14162
C          6.03565         3.48987         0.04363
C          7.26761         1.39578        -0.38314
C          7.28234         4.18671         0.09012
C          6.06509         6.29906         0.35354
C          6.06286         7.72754         0.68307
C          7.28895         5.60994         0.30579
C          7.39047         8.47461         0.76543
C          6.13097        10.63370         0.81540
C          6.15155        12.09147         1.20119
C          7.35876         9.94654         0.67545
C          7.40209        12.80162         0.74742
C          6.19052        14.94052         0.85104
C          6.25830        16.41040         0.88560
C          7.40182        14.21939         0.66565
C          7.46787        17.08764         0.38199
C          6.21362        19.24934         0.35604
C          7.46432        18.53588         0.25575
C          8.46972         2.07654        -0.37572
C          8.49709         3.47823        -0.08081
C          9.74826         1.36833        -0.78378
C          9.75701         4.18819        -0.02817
C          8.54414         6.33665         0.29848
C          8.58345         7.72204         0.41327
C          9.78308         5.60529         0.09383
C          9.79238         8.49188        -0.05093
C          8.59877        10.63638         0.57155
C          8.59905        12.08073         0.58764
C          9.82003         9.93412         0.39708
C          9.82578        12.77144         0.37304
C          8.62803        14.90649         0.35212
C          8.63108        16.35089         0.15613
C          9.81596        14.18148         0.21539
C          9.86915        17.02325        -0.12911
C          8.62023        19.20561        -0.08955
C          9.85601        18.47917        -0.51390
C         10.95767         1.95773        -0.03393
C         10.97311         3.46786        -0.16155
C         12.26672         1.29185        -0.37010
C         12.17577         4.16776        -0.29590
C         11.02555         6.29453         0.11685
C         11.07726         7.75015         0.20964
C         12.22290         5.56818        -0.08137
C         12.26433         8.42251         0.37673
C         11.05077        10.62052         0.42355
C         11.06517        12.04918         0.39727
C         12.31461         9.88200         0.46652
C         12.29429        12.76960         0.41776
C         11.07511        14.83708        -0.28852
C         11.08456        16.33323        -0.11072
C         12.32983        14.14788         0.18128
C         12.32677        17.02334        -0.07436
C         11.13224        19.18167        -0.17548
C         12.33108        18.47745        -0.06406
C         13.44079         1.97995        -0.61972
C         13.38704         3.45549        -0.74752
C         14.70494         1.34413        -0.76819
C         14.67018         4.23462        -0.85077
C         13.49663         6.26636        -0.05266
C         13.49010         7.57965         0.70007
C         14.65692         5.65263        -0.42384
C         14.81323         8.34115         0.64296
C         13.50203        10.56635         0.65071
C         13.52787        12.05810         0.91025
C         14.80227         9.86684         0.74880
C         14.80786        12.75152         0.50477
C         13.54991        14.87325         0.21079
C         13.55567        16.30379         0.05275
C         14.79345        14.16087         0.34542
C         14.78920        17.01234         0.08337
C         13.57812        19.15746         0.01248
C         14.80056        18.45534         0.03298
C         15.93255         2.06457        -0.82011
C         15.94097         3.49096        -0.78389
C         17.18069         1.37185        -0.83750
C         17.16380         4.20976        -0.67530
C         15.91294         6.43603        -0.68658
C         16.00336         7.74332         0.04701
C         17.18000         5.62997        -0.56227
C         17.20667         8.45693        -0.01419
C         16.04013        10.59775         0.43150
C         16.02609        12.03632         0.42352
C         17.23108         9.89136         0.22081
C         17.26713        12.73747         0.36008
C         16.02406        14.87793         0.26056
C         16.02717        16.30449         0.16530
C         17.26367        14.17715         0.35088
C         17.26190        17.00930         0.14782
C         16.03753        19.14056         0.00702
C         17.26928        18.44618         0.04155
C         18.41041         2.04894        -0.77838
C         18.40080         3.49153        -0.67131
C         19.65570         1.34908        -0.85909
C         19.61484         4.21631        -0.66029
C         18.39552         6.33786        -0.55105
C         18.41698         7.77846        -0.37970
C         19.61476         5.61618        -0.67341
C         19.65536         8.48887        -0.39884
C         18.47496        10.60322         0.09530
C         18.49624        12.02365         0.26367
C         19.68136         9.91074        -0.15962
C         19.74629        12.71058         0.31670
C         18.47804        14.88802         0.39098
C         18.49865        16.30140         0.26310
C         19.73288        14.15081         0.76925
C         19.74242        17.00679         0.20726
C         18.50462        19.12413        -0.03289
C         19.73854        18.42686         0.01150
C         20.90015         2.00570        -0.79204
C         20.88877         3.46734        -0.54591
C         22.14061         1.35133        -0.87398
C         22.18573         4.22447        -0.67721
C         20.83812         6.37884        -1.09196
C         20.86678         7.81716        -0.66298
C         22.13881         5.67430        -0.87519
C         22.10102         8.52005        -0.74278
C         20.92707        10.61795        -0.19341
C         20.95247        12.02770         0.11618
C         22.12814         9.93801        -0.48729
C         22.23304        12.70026         0.22744
C         20.99004        14.90109         0.44201
C         20.99498        16.28961         0.28466
C         22.23910        14.13928         0.58143
C         22.23884        17.01473         0.11669
C         20.96417        19.10942        -0.17359
C         22.20403        18.42605        -0.16570
C         23.40008         2.04402        -0.97930
C         23.41061         3.49505        -1.02270
C         24.60208         1.34932        -1.10116
C         24.58774         4.22749        -1.24745
C         23.31851         6.38976        -1.04300
C         23.29805         7.82131        -1.04082
C         24.56763         5.66647        -1.15740
C         24.52460         8.60690        -1.41043
C         23.40163        10.62926        -0.43003
C         23.42544        12.03392        -0.03590
C         24.57225         9.95942        -0.73823
C         24.69920        12.75343        -0.08195
C         23.54791        14.90575         0.50148
C         23.49326        16.35735         0.18731
C         24.74200        14.13303         0.11957
C         24.67904        17.05656        -0.10910
C         23.40635        19.11352        -0.45409
C         24.64916        18.44645        -0.46562
C         25.86747         2.03196        -1.55031
C         25.84935         3.52807        -1.32699
C         27.15007         1.35505        -1.12617
C         27.03754         4.22796        -1.25461
C         25.76528         6.39277        -1.23909
C         25.81760         7.83051        -1.27523
C         26.99005         5.67300        -1.35701
C         27.02971         8.50656        -1.30330
C         25.92209        10.55283        -0.41911
C         25.91881        12.06139        -0.39690
C         27.01350        10.00752        -1.34643
C         27.13423        12.73553        -0.59089
C         26.01529        14.83911         0.07439
C         25.98631        16.39517        -0.01269
C         27.20638        14.15580        -0.42226
C         27.17683        17.04684        -0.55824
C         25.86511        19.13019        -0.74963
C         27.11412        18.46640        -0.80644
C         28.28421         2.04568        -0.74800
C         28.17452         3.53670        -0.50120
C         29.53036         1.41483        -0.44447
C         29.53079         4.19601        -0.46325
C         28.12303         6.41865        -1.67211
C         28.28658         7.80455        -1.41147
C         29.86283         5.33555        -1.13047
C         29.56788         8.41693        -1.24741
C         28.35964        10.63745        -1.09534
C         28.36613        12.01788        -0.89157
C         29.59639         9.87962        -1.16066
C         29.58167        12.77244        -1.04879
C         28.38081        14.87817        -0.69062
C         28.36591        16.32566        -0.74634
C         29.58038        14.15315        -1.02045
C         29.58933        17.04154        -1.00994
C         28.32376        19.16303        -1.02059
C         29.56730        18.48507        -1.03084
C         30.66701         2.08876         0.09531
C         30.55820         3.57527         0.44259
C         31.84434         1.44850         0.43564
C         31.89155         4.28634         0.32322
C         30.86758         6.27973        -0.71152
C         30.80169         7.68110        -0.95926
C         31.96653         5.66041        -0.05770
C         32.01163         8.41903        -0.67055
C         30.79833        10.57311        -1.10453
C         30.82789        12.03580        -1.47158
C         32.10639         9.83713        -1.18012
C         32.09139        12.77272        -1.07532
C         30.81223        14.89015        -1.49956
C         30.81140        16.35695        -1.14729
C         32.08714        14.17061        -1.11308
C         32.03324        17.05958        -1.06446
C         30.79028        19.18685        -1.07095
C         32.02267        18.50100        -0.99880
C         32.93482         2.19036         1.17577
C         33.05296         3.62087         0.69136
C         34.25560         1.47212         1.22176
C         34.29140         4.31402         0.69660
C         33.14523         6.40457         0.17683
C         33.13353         7.79989        -0.12582
C         34.33132         5.70716         0.54836
C         34.30929         8.59223         0.38079
C         33.28557        10.62963        -0.65679
C         33.28563        12.05630        -0.78245
C         34.41913         9.97552        -0.19454
C         34.50166        12.77687        -0.55396
C         33.28534        14.91412        -0.92092
C         33.27668        16.35038        -0.94462
C         34.50837        14.22335        -0.66217
C         34.48050        17.06800        -0.72159
C         33.24363        19.19937        -0.85411
C         34.46500        18.51521        -0.68072
C         35.47517         2.11373         1.15165
C         35.58808         3.54704         0.66999
C         36.70713         1.44768         1.40186
C         36.69166         4.30766         1.40058
C         35.59674         6.43580         0.63548
C         35.61124         7.82888         0.42317
C         36.78972         5.74064         0.93228
C         36.83323         8.54230         0.51065
C         35.66151        10.67433        -0.03939
C         35.68422        12.07188        -0.26514
C         36.86214         9.97409         0.30422
C         37.00972        12.77775        -0.39007
C         35.69589        14.95411        -0.46095
C         35.69721        16.36817        -0.47598
C         36.92125        14.23543         0.05284
C         36.91590        17.10556        -0.19888
C         35.66071        19.21873        -0.42128
C         36.88212        18.54637        -0.17685
C         37.94882         2.14087         1.41925
C         37.99368         3.55742         1.33154
C         39.18476         1.42384         1.54329
C         39.22400         4.25469         1.31436
C         38.02735         6.42448         0.95081
C         38.03538         7.82233         0.74930
C         39.27346         5.68596         1.15961
C         39.31211         8.56878         0.76852
C         38.07786        10.72275         0.53430
C         38.13265        12.07655         0.33654
C         39.24015        10.02057         1.20713
C         39.28455        12.86353         0.92042
C         38.22942        14.96404        -0.25714
C         38.13357        16.44243         0.02920
C         39.39683        14.29438         0.43327
C         39.33453        17.15643         0.25831
C         38.07846        19.25884         0.06293
C         39.29957        18.59226         0.27123
C         40.38498         2.08865         1.55628
C         40.44179         3.51146         1.43358
C         41.67524         4.20479         1.43726
C         40.51948         6.33808         1.15465
C         40.59286         7.81283         0.96227
C         41.70896         5.58255         1.31128
C         41.75413         8.59774         1.43667
C         40.57364        10.73564         1.06683
C         40.59970        12.10483         0.89894
C         41.75365         9.95325         1.39039
C         41.80445        12.89709         0.97016
C         40.56741        14.99488         0.60256
C         40.58102        16.46209         0.45294
C         41.77965        14.26033         0.92881
C         41.74320        17.21381         0.60252
C         40.52120        19.30990         0.45277
C         41.70950        18.62875         0.59610
O         22.99206        14.50177         1.80038
O         21.62769         3.83551         0.66830
O          4.33425         8.26159        -0.98223
O         29.15888         5.71422        -2.28333
O         13.86365         3.94493        -2.05909
O         26.23410        15.69582         1.24602
O         15.02764         9.01230         1.93607
O         40.15598         8.28162        -0.38445
O          6.66731         8.01205         1.97586
O          5.82976        16.99299         2.21196
O         26.27085        10.10178         0.92510
H         25.62005        10.48177         1.55231
O         36.75527        14.21338         1.49335
H         36.68228        15.13918         1.80646
O         30.75501        14.85383        -2.96591
H         30.77758        13.89738        -3.22692
O         11.05696        14.63857        -1.75654
H         10.23098        15.04852        -2.09257
O         36.29016         4.35390         2.80656
H         36.98328         4.83928         3.30139
O         38.94506        10.01344         2.63636
H         38.82930        10.96051         2.89456
O         30.83905        12.04321        -2.95930
H         31.55469        11.40867        -3.21840
O         30.16463         3.65796         1.84576
H         30.85136         3.15032         2.35588
O         25.83948         1.88159        -3.03455
H         25.03945         2.34856        -3.35839
O         33.98666         8.83043         1.80727
H         34.73448         9.33441         2.19463
O         27.66328         3.66270         0.87217
H         28.43228         3.59125         1.49437
O          6.21300        12.09357         2.68356
H          6.94904        11.49953         2.94504
O         38.48746        14.89374        -1.68747
H         39.31019        15.39540        -1.86515
O         13.30716         7.15489         2.08633
H         13.74194         7.84384         2.64407
O          3.33494        16.49060         2.62042
H          4.20223        16.43336         3.08805
O         32.38958         9.71604        -2.64374
H         31.79499         9.01578        -2.99144
O          9.80632        18.46620        -2.02274
H         10.66272        18.09197        -2.32517
O         19.71067        14.07444         2.25045
H         19.93839        14.96346         2.59725
O         15.80719         6.79281        -2.12109
H         15.64876         5.96038        -2.61767
O         13.49353        12.19083         2.38355
H         12.66669        11.76532         2.69617
O         32.47047         2.29555         2.58865
H         33.16659         2.78052         3.08352
O          9.92585         1.50578        -2.19838
H          9.97956         2.46018        -2.41263
O         37.30577        12.72301        -1.81512
H         37.33091        11.77940        -2.07820
O         38.98035        12.94803         2.37499
H         39.66548        13.52590         2.77518
O         20.71444         6.42649        -2.58386
H         21.40842         7.04311        -2.90692
O          9.65651         8.56464        -1.52157
H         10.42027         9.07808        -1.86167
O         10.69707         1.66160         1.37451
H         11.41120         2.06963         1.90746
O         26.63832        10.41882        -2.70911
H         27.40379        10.24426        -3.29697
O         35.99382         3.48516        -0.72637
H         35.31485         2.97851        -1.21841
O         24.37222         8.89334        -2.85486
H         25.11160         9.51323        -3.08917
H          0.21181         1.48352         0.40571
H          0.18187         3.94038         0.61061
H          2.34822         0.25483         0.05361
H          0.20420         5.89497         0.77969
H          0.22325         8.31965         0.89849
H          0.24612        10.25470         0.34337
H          0.27778        12.68013         0.38686
H          0.32370        14.57052         0.28048
H          0.40046        17.00145         0.01150
H          1.64486        19.10955         0.00213
H          4.79673         0.28372        -0.24818
H          3.77751        20.35187         0.09141
H          7.25207         0.31654        -0.59752
H          6.21427        20.31803         0.09130
H          9.66947         0.27550        -0.56491
H          8.60305        20.30067        -0.19687
H         12.29973         0.19526        -0.27372
H         11.15052        20.28172        -0.19850
H         14.74532         0.24479        -0.74106
H         13.58834        20.25754         0.00028
H         17.17437         0.27336        -0.89799
H         16.04104        20.23938        -0.04756
H         19.63412         0.25659        -0.99167
H         18.51257        20.21787        -0.15014
H         22.15322         0.25298        -0.94826
H         20.95096        20.19219        -0.36631
H         24.59381         0.24894        -1.06135
H         23.36703        20.18750        -0.68793
H         27.19650         0.25987        -1.24426
H         25.83014        20.21380        -0.93500
H         29.60744         0.32530        -0.59546
H         28.30574        20.25817        -1.12274
H         31.97282         0.37395         0.23343
H         30.78368        20.28678        -1.08371
H         34.23243         0.41401         1.52988
H         33.23267        20.29881        -0.81425
H         36.70113         0.36387         1.59549
H         35.64026        20.31845        -0.39303
H         39.15661         0.32754         1.62586
H         38.05871        20.35883         0.05764
H         41.32718         1.52978         1.65478
H         42.61228         3.63722         1.53078
H         42.68085         6.09475         1.29719
H         42.65979         8.06942         1.76789
H         42.67672        10.48749         1.66099
H         42.77098        12.38763         1.09198
H         42.72452        14.80895         1.04005
H         42.71456        16.72008         0.73926
H         40.50164        20.40908         0.45900
H         42.65020        19.18324         0.72071
