         651
 CSIRO Nanostructure Databank - Neutral Graphene Oxide Data Set
C          5.99551        31.54595        -0.20191
C          5.95419        32.90947        -0.22832
C          8.56411        27.24264        -0.16911
C          8.57011        28.69355        -0.60153
C          7.26826        29.42978        -0.36877
C          8.47274        31.58273        -0.34229
C          7.23921        30.79924        -0.28586
C          8.40161        32.97425        -0.37543
C          7.15910        33.70673        -0.31714
C          8.32220        35.91330        -0.37944
C          7.13391        35.10445        -0.39671
C          8.34568        37.29603        -0.33240
C         11.09079        23.18180         1.15363
C         10.87098        24.56938         1.03808
C          9.71577        25.16825         0.49461
C         11.04088        27.27785         0.10314
C          9.71822        26.56479         0.16212
C         11.03993        28.76271        -0.01492
C          9.69801        29.44886         0.12984
C         10.95789        31.57605        -0.28166
C          9.74296        30.90625        -0.25281
C         10.95632        33.01983        -0.55387
C          9.62491        33.74679        -0.58254
C         10.86611        35.91820        -0.60940
C          9.61733        35.17989        -0.09802
C         10.83195        37.38660        -0.28956
C          9.58242        38.05967        -0.19757
C         10.83145        40.15951         0.16993
C          9.60306        39.44847         0.02980
C         10.86167        41.53559         0.51231
C         13.36814        19.01322         0.16325
C         13.54434        20.21289         1.09908
C         12.33818        21.12033         1.07468
C         13.66167        23.15172         1.46689
C         12.35053        22.48409         1.31421
C         13.82502        24.45117         1.87047
C         11.92031        25.49775         1.42982
C         13.42784        27.47920         1.26059
C         12.18833        26.68214         0.82907
C         13.42912        28.88554         0.69143
C         12.27859        29.52450         0.31094
C         13.40862        31.70098        -0.00925
C         12.23593        30.95008         0.01318
C         13.39008        33.13271        -0.21239
C         12.18170        33.78779        -0.30663
C         13.37492        35.99475        -0.46683
C         12.12841        35.26402        -0.04422
C         13.30855        37.36113        -0.51949
C         12.05472        38.08114        -0.29725
C         13.34366        40.15355         0.12589
C         12.07096        39.47296        -0.04162
C         13.35192        41.50110         0.70954
C         12.07305        42.21359         0.83619
C         13.25871        44.24552         1.79205
C         12.07540        43.56049         1.16477
C         13.38215        45.70664         1.45318
C         15.71860        14.64081        -0.85929
C         15.68150        16.12379        -0.90716
C         14.51646        16.88106        -0.37376
C         15.98003        18.78016         0.28855
C         14.61839        18.17173         0.00202
C         15.95827        20.29186         0.40363
C         14.83842        20.94882         0.79969
C         16.19686        23.12302         1.08494
C         14.89873        22.36482         1.23846
C         16.20516        24.61949         1.09808
C         14.96386        25.35040         1.53387
C         15.93763        27.45295         0.64789
C         14.75763        26.74095         1.03843
C         15.95778        28.88667         0.56560
C         14.70544        29.62832         0.77331
C         15.94876        31.70786        -0.11141
C         14.69849        31.09422         0.36877
C         15.86362        33.09892        -0.60886
C         14.63114        33.87878        -0.35809
C         15.85912        36.00308        -0.73759
C         14.61973        35.25339        -0.56494
C         15.81900        37.41237        -0.72790
C         14.51773        38.17092        -0.88796
C         15.84311        40.09052         0.20386
C         14.51667        39.50332        -0.18208
C         15.77395        41.59009         0.35049
C         14.54040        42.13058         0.99584
C         15.89450        44.23446         1.63937
C         14.58251        43.48711         1.60206
C         15.87169        45.73004         1.64996
C         14.57656        46.42689         1.57669
C         15.70731        48.67127         1.72416
C         14.54256        47.84195         1.50949
C         15.74040        50.11705         1.45628
C         17.95484        10.27432        -0.23616
C         17.58314        11.65798        -0.27403
C         16.77235        12.41778        -1.07457
C         18.21478        14.53002        -1.30076
C         16.84803        13.90023        -0.97444
C         18.20049        16.07019        -1.43150
C         16.95994        16.86665        -1.12183
C         18.32971        18.90509        -0.63213
C         17.10871        18.24635        -0.58598
C         18.42780        20.31060        -0.26954
C         17.32216        20.94823         0.52274
C         18.42909        23.17299         0.00129
C         17.31040        22.44388         0.41586
C         18.41486        24.59992        -0.04089
C         17.08396        25.29037         0.06441
C         18.37239        27.46412         0.16546
C         17.15407        26.76813         0.32772
C         18.38545        28.88585         0.23992
C         17.16063        29.59562         0.31544
C         18.41553        31.70054        -0.29100
C         17.15194        31.03009        -0.00428
C         18.46874        33.10334        -0.90111
C         17.13475        33.84780        -0.91425
C         18.32018        36.06863        -0.79524
C         17.10958        35.32275        -0.77442
C         18.26840        37.46947        -0.92746
C         17.02943        38.16578        -0.82148
C         18.18558        40.40902        -0.81174
C         16.99240        39.57661        -0.62203
C         18.29377        41.72573        -0.17302
C         17.04080        42.36718         0.30478
C         18.37289        44.39630         0.87584
C         17.21571        43.51246         1.27739
C         18.39412        45.72494         1.58866
C         17.04326        46.43174         1.58189
C         18.21023        48.64184         1.10850
C         17.05515        47.90416         1.74939
C         18.22605        50.14850         1.29467
C         16.92031        50.85335         1.43786
C         18.14399        53.02424         1.53872
C         16.94985        52.27415         1.41737
C         18.16992        54.41702         1.45461
C         20.29183         6.38733         1.56342
C         20.31425         7.68638         1.05788
C         19.15324         8.38935         0.65952
C         20.37077        10.58216         0.82667
C         19.12406         9.77749         0.37098
C         20.51267        12.01118         0.33482
C         19.42241        12.84155         0.22923
C         20.68357        14.69417        -0.69109
C         19.42712        14.09429        -0.45975
C         20.75666        16.04237        -1.16031
C         19.50688        16.79438        -1.39530
C         20.77597        18.87067        -1.03643
C         19.54633        18.23775        -1.07215
C         20.88753        20.26430        -0.48535
C         19.59454        21.02133        -0.46525
C         20.80086        23.17862        -0.64695
C         19.64436        22.46372        -0.36001
C         20.82795        24.61411        -0.56731
C         19.59640        25.33729        -0.28490
C         20.77505        27.52026        -0.55139
C         19.58215        26.75069        -0.18161
C         20.86794        28.93994        -0.22836
C         19.68551        29.63427         0.39743
C         20.88992        31.77498        -0.16138
C         19.62116        31.07128        -0.06682
C         20.87145        33.25048        -0.12351
C         19.52264        33.94437        -0.18228
C         20.79290        36.03859        -0.84711
C         19.60039        35.36258        -0.71125
C         20.74303        37.53391        -0.69761
C         19.52906        38.18838        -1.36112
C         20.75426        40.43657        -0.79765
C         19.52333        39.70494        -1.13508
C         20.73368        41.80129        -0.56826
C         19.48159        42.44200        -0.18950
C         20.75409        44.59702         0.22111
C         19.48652        43.81967         0.33013
C         20.80807        45.98523         0.75417
C         19.56188        46.60981         1.23169
C         20.80063        48.67934         1.66401
C         19.53381        47.95722         1.36817
C         20.78460        50.17211         1.85579
C         19.49808        50.88602         1.57162
C         20.71771        53.10595         1.94811
C         19.41354        52.33907         1.90066
C         20.67105        54.50251         1.48115
C         19.39534        55.15540         1.37461
C         20.53267        57.22020         0.68970
C         19.35571        56.52061         1.04276
C         20.48351        58.58616         0.32578
C         22.64093         3.70785         2.74984
C         21.45843         4.37798         2.40486
C         22.77191         6.32994         1.71717
C         21.49487         5.68817         1.88878
C         22.85625         7.63548         1.17924
C         21.62044         8.31427         0.75515
C         22.98982        10.45769         0.51711
C         21.65462         9.79979         0.49757
C         23.06630        11.86903         0.30348
C         21.83467        12.71698         0.48037
C         23.13035        14.61322        -0.47928
C         21.89873        14.02788        -0.26921
C         23.22073        15.95559        -1.08073
C         21.97619        16.73612        -1.19398
C         23.26631        18.86353        -1.09452
C         22.01199        18.15543        -1.21471
C         23.27428        20.33236        -1.07186
C         22.08923        21.01438        -0.97981
C         23.29598        23.19800        -0.91689
C         22.00609        22.49237        -1.24565
C         23.29252        24.56498        -0.71704
C         22.05100        25.29480        -0.69776
C         23.40449        27.51420        -0.88379
C         22.07295        26.75833        -0.85110
C         23.31509        28.94616        -0.42548
C         22.09781        29.63475        -0.32122
C         23.35509        31.80847        -0.43834
C         22.10425        31.09858        -0.21575
C         23.36070        33.19428        -0.67836
C         22.14434        33.98782        -0.46581
C         23.23594        36.01363        -1.42713
C         22.09144        35.39146        -0.93001
C         23.20529        37.51361        -1.65866
C         21.97834        38.25002        -1.19255
C         23.21066        40.46551        -1.26565
C         22.05988        39.67485        -0.65202
C         23.28856        41.81463        -0.61702
C         22.01813        42.62285        -0.71771
C         23.23092        44.55642         0.29046
C         22.04716        43.89610         0.09060
C         23.30079        45.95442         0.72492
C         22.10117        46.64947         0.99486
C         23.29914        48.72876         1.43066
C         22.09681        48.01143         1.37519
C         23.33228        50.16250         1.93121
C         22.03633        50.91317         1.72804
C         23.21446        53.07817         1.33216
C         22.07464        52.39158         2.05344
C         23.11253        54.42067         0.95962
C         21.84581        55.14440         1.04773
C         22.94600        57.18224         0.16182
C         21.78164        56.50963         0.63393
C         22.87700        58.54925        -0.21430
C         21.63618        59.26279        -0.11893
C         22.74155        61.27983        -0.95325
C         21.59698        60.63551        -0.49496
C         23.87838         4.32240         2.60745
C         25.21754         6.30806         1.96998
C         23.97308         5.64642         2.09700
C         25.30537         7.62759         1.49630
C         24.09513         8.30471         1.08696
C         25.48174        10.28284         0.49525
C         24.14967         9.67280         0.65644
C         25.53997        11.77195         0.26250
C         24.28257        12.53458         0.20071
C         25.57170        14.63853        -0.02086
C         24.35151        13.94595        -0.08028
C         25.69246        16.02319        -0.35434
C         24.53201        16.71409        -0.96709
C         25.68863        18.92944        -0.61198
C         24.46331        18.18152        -0.95021
C         25.78586        20.35398        -1.01204
C         24.54579        21.05756        -1.09662
C         25.77261        23.16023        -0.87607
C         24.52983        22.46090        -0.95813
C         25.82766        24.56204        -0.61895
C         24.55465        25.26447        -0.38025
C         25.91257        27.44062        -0.32890
C         24.58654        26.76448        -0.28502
C         25.90395        28.92023        -0.14575
C         24.58198        29.66442        -0.19946
C         25.80498        31.76116        -0.80349
C         24.59732        31.10856        -0.50126
C         25.79418        33.15968        -1.11881
C         24.54626        33.86334        -1.07430
C         25.64491        35.69834        -2.13203
C         24.46449        35.22315        -1.52964
C         25.68954        37.84038        -2.13031
C         24.45465        38.34162        -1.61371
C         25.70521        40.29144        -0.84603
C         24.47263        39.66143        -1.18233
C         25.72879        41.63870        -0.43537
C         24.48268        42.40765        -0.33467
C         25.73264        44.49450         0.40492
C         24.49639        43.93452        -0.27792
C         25.80298        45.96664         0.66628
C         24.53139        46.66189         0.83929
C         25.74918        48.80830         1.18335
C         24.52064        48.05412         1.16144
C         25.74064        50.20877         1.24744
C         24.52807        50.94664         1.41732
C         25.61637        53.08946         0.78998
C         24.45497        52.35292         1.21669
C         25.51816        54.41936         0.35793
C         24.26398        55.10932         0.43022
C         25.35515        57.16096        -0.42929
C         24.18508        56.46953         0.05684
C         25.26586        58.51706        -0.79545
C         24.04632        59.22764        -0.69495
C         23.95517        60.59432        -1.05815
C         26.56392         8.31035         1.49056
C         27.91428        10.35304         1.13838
C         26.68919         9.63373         1.06529
C         28.00215        11.75830         0.97494
C         26.73083        12.49062         0.78116
C         28.03709        14.66298         0.61854
C         26.73832        13.98813         0.60683
C         28.08037        16.03738         0.31071
C         26.88396        16.70812        -0.13323
C         28.23417        18.85552        -0.33715
C         26.92655        18.17846        -0.25607
C         28.31356        20.19871        -1.01699
C         27.02465        21.00746        -1.11886
C         28.08862        23.27212        -1.43323
C         26.96870        22.44463        -1.16858
C         28.24330        24.56864        -0.96410
C         27.04874        25.27046        -0.59198
C         28.43935        27.34452        -0.13663
C         27.07592        26.72055        -0.41602
C         28.45715        28.99601        -0.24889
C         27.12518        29.67766        -0.47801
C         28.28541        31.74347        -1.16408
C         27.06857        31.02618        -0.82235
C         28.28065        33.14589        -1.41596
C         27.01212        33.85540        -1.42522
C         28.15953        36.00143        -2.24676
C         26.93818        35.19448        -1.86931
C         28.16951        37.59220        -2.34690
C         26.93170        38.25835        -1.74982
C         28.25564        40.24487        -0.88463
C         26.94049        39.48342        -0.93098
C         28.18386        41.67544        -0.60343
C         26.98956        42.30320        -0.26639
C         28.28820        44.43312         0.37759
C         26.99007        43.68720         0.29249
C         28.29088        45.88615         0.74554
C         26.99879        46.60776         0.87972
C         28.13948        48.79603         0.36972
C         27.08064        48.08386         1.24225
C         28.21084        50.27721         0.61818
C         27.02657        50.94352         1.12966
C         28.09293        53.12008         0.20958
C         26.94790        52.47956         0.88263
C         27.93677        54.44845        -0.23024
C         26.69737        55.12249        -0.12419
C         26.58478        56.46510        -0.51961
C         29.17262        12.51460         1.14508
C         30.40795        14.68907         1.15324
C         29.21119        13.94244         0.98935
C         30.45508        16.08295         0.94647
C         29.28433        16.77447         0.48915
C         30.55874        18.97220         0.51475
C         29.33566        18.17482         0.14585
C         30.89018        20.03487        -0.51173
C         29.73935        20.71947        -1.21919
C         31.02643        22.91259        -1.08710
C         30.01182        22.13828        -1.54443
C         30.91831        24.40316        -0.88391
C         29.60798        25.16963        -0.80012
C         30.74478        27.32005        -1.21984
C         29.61020        26.66327        -0.86975
C         30.71325        28.79731        -1.40530
C         29.52578        29.59374        -1.10641
C         30.71482        31.73988        -1.53653
C         29.50414        31.00211        -1.32357
C         30.71867        33.13943        -1.64481
C         29.49107        33.84707        -1.68834
C         30.78101        36.08588        -2.13493
C         29.48167        35.27884        -2.12974
C         30.79552        37.60470        -2.14766
C         29.48401        38.31330        -1.92992
C         30.47685        40.61324        -1.89027
C         29.41454        39.66846        -1.61507
C         30.64086        41.85278        -1.30635
C         29.37342        42.49671        -0.89314
C         30.68578        44.64978        -0.61149
C         29.38411        43.92144        -0.50089
C         30.72978        46.06542        -0.16556
C         29.55396        46.68105         0.52441
C         30.70539        48.90975        -0.02117
C         29.51809        48.16632         0.49737
C         30.56702        50.29635        -0.15548
C         29.35584        50.99137         0.20077
C         29.28724        52.40760         0.03726
C         31.67473        16.81745         1.16461
C         32.94886        18.93672         1.21359
C         31.77807        18.17949         0.92813
C         33.08136        20.28220         0.81758
C         32.14363        20.79847        -0.21788
C         33.39820        23.07344        -0.14229
C         32.26441        22.23692        -0.63181
C         33.42374        24.54507        -0.40497
C         32.22859        25.15595        -1.11685
C         33.25931        27.50400        -1.40958
C         32.06244        26.63797        -1.48412
C         33.27378        28.83089        -1.07983
C         32.02636        29.55221        -1.41746
C         33.18316        31.75963        -0.87727
C         32.00591        31.03690        -1.42739
C         33.08610        33.23651        -0.74491
C         32.02553        33.87250        -1.58760
C         33.12329        36.11205        -1.00887
C         32.04566        35.36868        -1.70882
C         33.17152        37.50249        -1.06605
C         32.08767        38.25057        -1.69281
C         33.34718        40.40415        -1.34860
C         32.32641        39.57701        -1.96049
C         33.20370        41.75437        -1.05413
C         31.93459        42.52641        -1.11310
C         33.09748        44.53918        -0.02372
C         31.93569        43.85870        -0.71749
C         33.17286        46.04176        -0.22295
C         32.02866        46.79707        -0.11333
C         31.93035        48.22582        -0.19420
C         34.11876        21.11306         1.27407
C         35.25788        23.27061         1.47898
C         34.29370        22.46726         0.87917
C         35.42145        24.63524         1.09654
C         34.55424        25.20459         0.06454
C         35.72413        27.40529         0.31384
C         34.93642        26.51959        -0.38448
C         35.70714        28.86605         0.02009
C         34.49528        29.56536        -0.61205
C         35.41603        31.82904         0.23885
C         34.16751        30.95575        -0.03986
C         34.99481        33.22130         0.79031
C         34.09138        33.94275        -0.17366
C         35.31834        36.14456         0.25223
C         34.37186        35.35419        -0.61033
C         35.42550        37.50573        -0.02716
C         34.37308        38.19797        -0.68929
C         35.66432        40.34563        -0.34006
C         34.62719        39.62143        -1.15041
C         35.59003        41.70390        -0.21520
C         34.38767        42.45712        -0.52003
C         34.37389        43.78757        -0.19477
C         36.35851        25.45689         1.71694
C         37.48874        27.60176         2.05812
C         36.51800        26.85429         1.41195
C         37.67465        29.02565         1.76835
C         36.70312        29.68070         0.83223
C         37.21799        31.86470         2.12878
C         36.33866        31.09117         1.19700
C         37.02174        33.33302         2.11295
C         36.18710        34.00866         1.28850
C         37.69355        36.09130         1.08146
C         36.25998        35.52916         1.26734
C         37.79809        37.40711         0.71458
C         36.66208        38.21116         0.32840
C         36.76263        39.57530         0.17400
C         38.57214        29.88326         2.58774
C         39.74412        32.00719         2.78522
C         38.50804        31.25344         2.57632
C         40.03059        33.30916         2.47685
C         39.00509        34.30434         2.22021
C         38.92600        35.34361         1.33812
O         21.58628         8.86960        -0.61906
O         25.75991        10.85839        -0.84380
O         18.81516        16.49823        -2.69221
O         28.79317        35.41172        -3.42365
O         30.30720        24.67743         0.41892
O         14.76148        30.68600         1.78808
O         16.17822        25.21226         2.40916
O         24.38146        25.98320         0.91699
O         29.87394        47.45478         1.71950
O         25.56276        36.76649        -3.01613
O         16.31242        33.32208        -2.01354
O         15.99946        16.70899        -2.23993
O         15.84062        22.52577         2.38743
O         28.62247        44.82059         1.73193
O         21.22542        27.20922        -1.95182
O         10.29927        33.42958        -1.82392
O         24.11753        16.08279        -2.23479
O         11.26613        27.92604        -1.21046
O         33.44075        22.42020        -1.48884
O         31.44053        40.21673        -2.82272
O         20.72295        49.25684         3.02899
O         34.46778        26.86252        -1.65514
O         28.67815        27.02858         1.19803
O         29.03870        22.76195        -2.31174
O         24.44239        44.35613        -1.63569
O         35.99359        31.17609         2.62286
O         27.26273        51.92015         2.18576
O         30.49207        45.75459        -1.58836
O         35.71071        29.36376        -1.37515
O         18.20856        12.40141         0.75447
O         16.07261        42.46022        -0.79812
O         33.11515        31.47014        -2.30409
O         18.74963        40.36502        -2.17811
O         12.73780        25.07511         2.49066
O         15.35741        43.59908         2.86040
O         37.83976        34.06180         2.98866
O         30.94052        36.82916        -3.38238
O         26.39735        13.35105         1.91106
O         28.93725        43.58078        -1.85096
O         31.39606        29.12402        -2.66882
O         26.21037        43.71953         1.54305
O         29.06603        19.98200        -2.28026
O         19.93609        52.80786         3.17469
O         25.22896        29.33189         1.09703
O         19.04013        50.71950         0.18592
O         16.51302        48.37439         2.96442
O         20.63266        45.72943        -0.71863
O         32.23871        25.59940        -2.50745
O         32.04718        19.83840        -1.34651
O         38.04007        29.41151         0.33175
O         27.79705        39.42046         0.25353
O         22.20403        38.02725        -2.60395
O         26.06973        18.79477         0.82528
O         21.67581        33.83973         0.95651
O         32.54748        34.49053        -2.80772
O         19.05351        34.07594         1.18775
H         19.85194        34.23899         1.74117
O         22.97425        40.66678        -2.67617
H         22.54603        41.55651        -2.79253
O         28.14271        37.87949        -3.75786
H         28.73638        37.22496        -4.19870
O          8.81218        28.72667        -2.03070
H          9.70309        28.32412        -2.17890
O          9.64639        35.06223         1.34751
H          9.77886        35.95689         1.72597
O         21.85368        13.08777         1.91797
H         21.61333        12.27331         2.42075
O         16.37214        25.07949        -1.20964
H         16.93306        25.43961        -1.92924
O         32.76242        44.38730         1.41687
H         32.87688        43.44244         1.65541
O         30.15856        19.75318         1.69225
H         29.83343        19.13090         2.37717
O         22.44980        52.48231         3.47703
H         21.60532        52.39930         3.98365
O         17.95150        48.42894        -0.31222
H         18.53874        49.04270        -0.81000
O         20.56302        37.74246         0.74167
H         20.96638        36.98527         1.21787
O         27.52683        48.19627         2.61279
H         27.01283        47.57175         3.16512
O         10.95141        35.83855        -2.04801
H         10.09692        36.13073        -2.42733
O         17.72008        20.64317         1.93533
H         17.15367        21.23764         2.49647
O         35.22884        39.46425        -2.48361
H         34.59113        38.97637        -3.04830
O         17.70126        42.87162         2.50417
H         16.90040        42.64452         3.04003
O         12.93802        44.24863         3.22471
H         13.80085        44.21760         3.70354
O          9.36320        29.38827         1.54586
H         10.00052        29.94512         2.04057
O         12.10259        35.41096         1.41287
H         12.89199        34.95424         1.77288
O         22.38570        39.61486         0.75914
H         21.66069        39.11976         1.21091
O         23.54900        50.03792         3.37979
H         23.37242        50.93642         3.76040
O         27.71799        48.60262        -1.00910
H         28.40062        48.97851        -1.60426
O         13.01719        19.53689        -1.12639
H         13.08800        18.81669        -1.78652
O         18.53355        13.98445        -2.60424
H         18.85576        14.74156        -3.15580
O         23.76860        27.62649        -2.30118
H         22.92641        27.76927        -2.79500
O         18.65626        45.40867         2.99781
H         18.37365        44.47130         3.15478
O         35.10345        35.17935        -1.89029
H         34.45575        34.78668        -2.52952
O         16.34001        18.28888         1.62414
H         16.97102        18.95083         2.00951
O         13.65949        19.67841         2.44517
H         13.85880        20.42119         3.05301
O         21.18071        20.07090         0.95769
H         20.33611        19.85836         1.41179
O         20.32780        10.64316         2.28881
H         19.49565        11.10599         2.53041
O         36.12335        32.05609        -0.98247
H         36.24934        31.18586        -1.43746
O         14.39775        38.47241        -2.32128
H         14.30988        37.61945        -2.79772
O         16.11217        39.62873         1.58559
H         16.13082        38.64727         1.57284
O         33.49528        30.62461         1.19499
H         33.37384        31.46739         1.70553
O         19.60325        37.95711        -2.77872
H         19.19380        38.73133        -3.22779
O         19.94309        29.65946         1.84881
H         19.22021        30.16817         2.27413
O         35.82255        36.01263         2.57328
H         36.44243        35.62543         3.23259
O         28.89051        29.42103         1.07330
H         28.87293        28.56858         1.62831
O         13.34019        27.69588         2.69997
H         13.28092        26.80792         3.12596
O         34.15958        33.02237         1.97750
H         34.72762        32.59644         2.66814
O         18.90801        32.96258        -2.26760
H         18.10330        32.80344        -2.81218
O         22.02806        43.11916        -2.10726
H         22.86463        43.68264        -2.16714
O         21.81978        22.61869        -2.70705
H         22.61528        22.24228        -3.14055
H          5.05695        30.97441        -0.14242
H          4.98508        33.42881        -0.18634
H          7.60857        26.69453        -0.17823
H          6.32533        28.86033        -0.36649
H          6.15738        35.61275        -0.43161
H          7.39937        37.85810        -0.37056
H         10.23811        22.53269         0.89444
H          8.81748        24.56674         0.29136
H          8.65567        39.99620         0.14381
H          9.91272        42.08466         0.60693
H         12.52743        18.36513         0.54585
H         11.36625        20.63611         0.89075
H         11.12215        44.11091         1.17731
H         12.44359        46.27871         1.38274
H         14.75487        14.12705        -0.71533
H         13.52161        16.41991        -0.49689
H         13.60817        48.32896         1.19290
H         14.77841        50.64729         1.38427
H         17.26679         9.53472        -0.67700
H         16.13155        11.96835        -1.84775
H         15.99654        52.81909         1.34342
H         17.22958        54.96108         1.27926
H         19.32624         5.88866         1.73733
H         18.20663         7.82934         0.59591
H         18.38656        57.03847         0.99593
H         19.52471        59.12270         0.37822
H         22.58391         2.68472         3.14709
H         20.48807         3.87859         2.53825
H         22.69182        62.33988        -1.23901
H         20.64680        61.18357        -0.42037
H         24.79693         3.79067         2.89414
H         26.13580         5.78392         2.27456
H         26.16418        59.03633        -1.16183
H         24.85188        61.11398        -1.42492
H         27.44568         7.78221         1.88435
H         28.82196         9.80078         1.42781
H         28.79679        54.97578        -0.66869
H         27.47488        56.99387        -0.89169
H         30.11486        11.99401         1.37440
H         31.32608        14.16709         1.46168
H         31.42754        50.89625        -0.48749
H         30.16045        52.92814        -0.38269
H         32.56022        16.26245         1.51065
H         33.76556        18.46196         1.77923
H         34.16194        46.51950        -0.29019
H         32.83841        48.81205        -0.40411
H         34.81832        20.70921         2.02238
H         35.90275        22.85609         2.26793
H         36.40297        42.24442         0.29449
H         35.29452        44.24773         0.19735
H         36.99963        25.02779         2.50132
H         38.10429        27.13639         2.84113
H         38.78958        37.88593         0.69400
H         37.67962        40.09797         0.48625
H         39.48976        29.39776         2.95951
H         40.60871        31.36337         3.01695
H         41.08779        33.61556         2.44559
H         39.82175        35.64527         0.77384
