         349
 CSIRO Nanostructure Databank - Neutral Graphene Oxide Data Set
C          1.29563         1.92586        -0.75355
C          1.25020         3.33358        -0.68475
C          2.50091         1.25236        -0.73500
C          2.41971         4.09172        -0.57929
C          1.17759         6.30297        -0.88200
C          1.10763         7.65309        -0.81856
C          2.40065         5.56215        -0.58420
C          2.29208         8.46716        -0.46319
C          1.15369        10.76385        -0.95681
C          1.25243        12.09496        -1.17726
C          2.33011         9.98077        -0.54702
C          2.52111        12.80376        -1.13479
C          1.35591        15.02617        -1.45117
C          1.38538        16.40173        -1.36054
C          2.56810        14.24891        -1.38042
C          2.60485        17.13058        -1.30486
C          2.54593        18.39665        -0.67425
C          3.72385         1.97561        -0.61966
C          3.67609         3.40453        -0.52205
C          4.96923         1.30942        -0.57918
C          4.90107         4.11957        -0.36823
C          3.55986         6.26498        -0.35193
C          3.60271         7.73617        -0.54059
C          4.82657         5.56862        -0.06139
C          4.87190         8.52790        -0.33104
C          3.64496        10.67909        -0.60240
C          3.68471        12.09669        -0.88494
C          4.80321        10.00207        -0.28620
C          5.05992        12.66355        -1.19443
C          3.78301        14.91136        -1.45467
C          3.81108        16.37625        -1.85205
C          5.06952        14.18235        -1.44145
C          5.12997        17.03374        -1.56417
C          3.57361        19.21369        -0.20725
C          4.93797        19.01024        -0.56395
C          6.17956         2.02443        -0.46686
C          6.12509         3.45675        -0.37099
C          7.43934         1.36561        -0.43626
C          7.40005         4.20895        -0.35154
C          6.08246         6.35614         0.13681
C          6.10980         7.83573         0.08909
C          7.39401         5.69494        -0.12628
C          7.27525         8.48820         0.42261
C          6.00564        10.74184         0.16045
C          6.13928        12.16349        -0.23398
C          7.22577         9.97017         0.59312
C          7.34517        12.82815        -0.10662
C          6.36041        14.94654        -1.25953
C          6.30871        16.46403        -1.17261
C          7.49546        14.15551        -0.68994
C          7.43854        17.35748        -0.80328
C          6.07118        19.25650         0.17997
C          7.33442        18.62624        -0.13748
C          8.66067         2.06222        -0.25671
C          8.66082         3.48921        -0.13315
C          9.90023         1.37324        -0.22786
C          9.84987         4.21201         0.10148
C          8.60618         6.38931         0.36260
C          8.51606         7.74958         0.66662
C          9.84377         5.63916         0.36631
C          9.73081         8.46213         1.13138
C          8.50455        10.73394         0.80880
C          8.57390        12.15126         0.33293
C          9.74663         9.97557         1.17191
C          9.81123        12.75545         0.25077
C          8.75541        14.66389        -0.81146
C          8.75139        16.86748        -0.92951
C          9.92939        14.15125        -0.14780
C          9.87023        17.35079        -0.24912
C          8.52133        19.25900         0.33067
C          9.77570        18.64875         0.32086
C         11.11222         2.06274        -0.06569
C         11.09240         3.49733         0.13807
C         12.35514         1.37548        -0.14809
C         12.30000         4.19273         0.34900
C         11.06381         6.30655         0.57018
C         11.06164         7.72730         0.98846
C         12.30683         5.60440         0.48511
C         12.28533         8.51778         0.71625
C         11.09923        10.71137         1.20938
C         11.08925        11.95765         0.29743
C         12.30932         9.89511         0.78573
C         12.30556        12.78727         0.61885
C         11.02857        14.95005         0.13081
C         10.98556        16.44893         0.17934
C         12.36267        14.26746         0.38643
C         12.20192        17.16525         0.68065
C         10.99538        19.35984         0.90427
C         12.31025        18.68007         0.45297
C         13.58304         2.03028         0.04602
C         13.56027         3.44413         0.46502
C         14.81520         1.38776        -0.11733
C         14.89022         4.20838         0.44834
C         13.55289         6.32108         0.40964
C         13.46679         7.78774         0.23782
C         14.78776         5.67862         0.28950
C         14.78761         8.57874         0.15442
C         13.53627        10.64026         0.67069
C         13.51633        12.09822         0.79129
C         14.76864         9.98671         0.54517
C         14.71835        12.77052         1.10985
C         13.42839        14.97463         1.24351
C         13.47985        16.43966         1.00499
C         14.70581        14.19550         1.59041
C         14.71910        17.12053         0.44738
C         13.56513        19.21988         1.12184
C         14.79240        18.56553         0.98514
C         16.10123         2.02949        -0.07558
C         16.12608         3.49294         0.03639
C         17.17883         1.14636        -0.27619
C         17.23292         4.29583        -0.25212
C         16.01484         6.41930         0.11488
C         16.04366         7.84407         0.22352
C         17.21698         5.71238        -0.08186
C         17.25496         8.56364         0.42904
C         16.00397        10.63421         0.85696
C         15.92842        12.00748         1.36524
C         17.23675         9.96782         0.77868
C         17.27057        12.76350         1.60640
C         15.98352        14.93728         1.23563
C         15.99168        16.27802         0.65029
C         17.23167        14.27661         1.57711
C         17.29644        17.02930         0.48293
C         16.04662        19.19838         0.99364
C         17.19087        18.53794         0.23394
C         18.64102         1.29101        -0.29593
C         18.55630         3.79190        -0.75856
C         19.45636         1.65659         0.74017
C         19.69475         4.23227         0.12111
C         18.50863         6.48767        -0.25768
C         18.48584         7.88770         0.31537
C         19.66683         5.70714         0.34320
C         19.69990         8.55261         0.61704
C         18.49146        10.67003         1.02154
C         18.50471        12.06238         1.26358
C         19.71464         9.92463         0.94005
C         19.79942        12.80846         1.58990
C         18.58427        15.03074         1.37566
C         18.57001        16.42510         0.90917
C         19.80148        14.26187         1.18020
C         19.75716        17.09160         0.64065
C         18.52631        19.22213         0.34331
C         19.72442        18.53483         0.38106
C         20.87235         2.09939         0.54350
C         20.96630         3.48402         0.27233
C         22.06105         1.37379         0.67623
C         22.18083         4.17974         0.36454
C         20.95174         6.42240         0.45746
C         20.95455         7.79073         0.54349
C         22.18768         5.65639         0.04824
C         22.21743         8.51076         0.53339
C         21.02558        10.58007         1.34569
C         21.03038        12.07434         1.15167
C         22.22995         9.90653         0.73196
C         22.20524        12.77316         0.88453
C         20.99564        14.93115         0.83286
C         21.00332        16.37851         0.63587
C         22.20871        14.20477         0.75129
C         22.20562        17.08206         0.40864
C         20.97740        19.21104         0.21525
C         22.18842        18.51889         0.21359
C         23.31630         2.04530         0.67753
C         23.36077         3.46508         0.60800
C         24.56915         1.33189         0.62557
C         24.58821         4.21651         1.08359
C         23.45767         6.37036         0.41003
C         23.42936         7.77703         0.42766
C         24.65312         5.63115         0.52945
C         24.71410         8.52425         0.65383
C         23.42678        10.65389         0.56648
C         23.44090        12.03260         0.67906
C         24.64933         9.93585         0.04460
C         24.73256        12.73790         0.78945
C         23.46705        14.89307         0.28986
C         23.46583        16.40148         0.41026
C         24.72517        14.23044         0.81981
C         24.65537        17.11019         0.27884
C         23.42502        19.18894        -0.06426
C         24.63625        18.51571        -0.04426
C         25.79996         1.97638         0.56732
C         25.94947         3.44239         0.97826
C         26.97457         1.28392         0.14853
C         26.93768         4.09045        -0.03918
C         25.90059         6.28805         0.32824
C         25.88455         7.74554         0.10993
C         27.06785         5.58680         0.06668
C         27.18280         8.47194        -0.01596
C         25.97367        10.64585         0.28428
C         26.00180        12.04163         0.52152
C         27.16526         9.92048         0.22396
C         27.21892        12.77924         0.32237
C         26.03319        14.96674         0.69193
C         25.97234        16.45322         0.50008
C         27.24694        14.20839         0.29926
C         27.22239        17.16686         0.07525
C         25.88012        19.17983        -0.41575
C         27.08667        18.55336        -0.41689
C         28.18797         1.91744        -0.16790
C         28.32159         3.41547         0.01114
C         29.33879         1.23417        -0.59509
C         29.29331         4.07466        -0.98773
C         28.32579         6.25598        -0.20908
C         28.43057         7.69672        -0.05126
C         29.44923         5.53303        -0.59576
C         29.64921         8.36147        -0.22875
C         28.45086        10.61642         0.31116
C         28.42942        12.06872         0.08789
C         29.72426         9.83205        -0.01160
C         29.58327        12.72529        -0.38987
C         28.38533        14.86683        -0.21909
C         28.44642        16.35501        -0.28879
C         29.49657        14.12252        -0.66369
C         29.47579        16.99211        -1.15315
C         28.38093        19.27283        -0.72416
C         29.43077        18.38755        -1.37227
C         30.53494         1.92037        -0.92503
C         30.59328         3.30320        -1.02647
C         31.78618         4.03434        -1.36622
C         30.82443         6.14021        -0.43674
C         30.84054         7.65418        -0.56160
C         31.87833         5.38002        -1.19801
C         31.98765         8.40202        -0.88286
C         30.87772        10.58481        -0.55126
C         30.81282        11.99574        -0.65740
C         31.99422         9.80220        -0.93883
C         31.97691        12.79619        -0.99028
C         30.52231        14.70857        -1.60688
C         30.50371        16.21818        -1.72714
C         31.87813        14.10254        -1.33907
C         31.46460        16.84383        -2.53446
C         30.41302        18.98948        -2.16900
C         31.42324        18.22131        -2.74941
O          5.92799        14.51033        -2.61367
O         13.25683        15.90663         2.36142
O          8.89786        10.53450         2.22427
O         13.98691         8.26636        -1.04103
O         14.30061         3.71158         1.69791
O          7.51308         5.17807        -1.48961
O         14.49908        17.29548        -0.93441
O         26.32730         8.10864        -1.23258
O          6.24340        10.42840         1.58731
O         18.70915         3.38483        -1.90566
O          5.13422        18.40820        -1.82804
O          5.35809         5.84942         1.31264
O         11.17452        16.81086         1.64216
O          4.43718         8.07057        -1.70146
O          8.95002        15.71475        -1.70366
O         24.66242        13.53139         2.07405
O         17.96007        14.87299         2.72618
O         10.40897         7.90297         2.29565
O         16.77432        16.22848        -0.62077
O         16.52543        12.17265         2.70392
O         19.25650         4.79955         1.41146
O          2.13688         9.27203         0.74929
O         29.37393        10.17607         1.37714
O         26.14877        15.88017         1.83921
O         28.32859        17.00805         1.02147
O         11.34367        11.13059         2.55926
H         10.47749        11.13405         3.03030
O         16.73321        18.75679        -1.12586
H         15.91534        18.16721        -1.26148
O         30.11811        14.23221        -2.94505
H         30.21943        13.25632        -2.94786
O         28.14568        20.44317        -1.50686
H         27.83245        20.16733        -2.39218
O         21.16788        10.36527         2.79787
H         20.64784        11.07842         3.24564
O         19.81748        12.79445         3.07516
H         19.09505        13.40634         3.36903
O         12.44445        18.93281        -0.95914
H         13.24013        18.38770        -1.25506
O          5.42384        12.01442        -2.44992
H          5.91838        12.68970        -2.97609
O         23.55175        14.65374        -1.16729
H         22.74218        15.02407        -1.58000
O         10.92138        19.40585         2.33031
H         10.86905        18.47358         2.64517
O          3.66857        16.37616        -3.31660
H          4.42014        15.84554        -3.66582
O         26.36044         3.80916        -1.35323
H         25.58588         4.39912        -1.47947
O         31.11431         5.84624         1.00797
H         30.85126         6.63758         1.52759
O         24.28377         4.43969         2.48760
H         25.09958         4.21427         2.99824
O         26.51911         3.45256         2.29966
H         27.50230         3.34972         2.23372
O         22.15023         5.69584        -1.43117
H         22.08042         6.63602        -1.70550
O         24.94071         8.64752         2.07864
H         24.12138         8.99041         2.49595
O         11.23357        11.43237        -1.06710
H         11.27174        12.18923        -1.68906
O         28.93639         3.62245         1.31654
H         29.59602         4.35772         1.26413
O         19.22540         0.83660        -1.44697
H         18.55848         0.77719        -2.15833
O         24.42384         9.86830        -1.38300
H         25.14681         9.31290        -1.76952
O         28.80470         4.03101        -2.34923
H         27.81558         4.05087        -2.32289
O         18.76586         6.63685        -1.68753
H         18.69668         5.75259        -2.11049
O         13.01912        14.40825        -0.94327
H         12.46630        13.95800        -1.61673
O         14.76623        14.08003         3.04284
H         14.33188        14.88257         3.41771
H          0.35426         1.36448        -0.83279
H          0.26888         3.82575        -0.71167
H          2.52955         0.15551        -0.80199
H          0.27175         5.73920        -1.14417
H          0.14847         8.16101        -0.99396
H          0.17780        10.26335        -1.02475
H          0.34514        12.64745        -1.45423
H          0.38098        14.52350        -1.44465
H          0.43909        16.94461        -1.21162
H          1.53191        18.68676        -0.34967
H          4.99422         0.21118        -0.63755
H          3.32440        19.99008         0.53108
H          7.46557         0.27022        -0.53404
H          6.00960        19.88080         1.08350
H          9.91190         0.28183        -0.36254
H          8.42518        20.25722         0.78245
H         12.35155         0.30314        -0.39434
H         10.99678        20.41815         0.54007
H         14.79887         0.30843        -0.33463
H         13.51813        20.19657         1.63198
H         16.86182         0.13248        -0.58722
H         16.05484        20.30294         0.99540
H         18.98709         2.00011         1.67509
H         18.54074        20.31410         0.20412
H         22.03910         0.28306         0.81365
H         20.97271        20.29576         0.03224
H         24.53457         0.24248         0.46019
H         23.40082        20.26160        -0.30705
H         26.89439         0.19866        -0.03008
H         25.82601        20.23353        -0.73008
H         29.32747         0.13472        -0.63835
H         28.79959        19.62613         0.25951
H         31.44719         1.32982        -1.10034
H         32.64383         3.47486        -1.77306
H         32.80822         5.89530        -1.47860
H         32.91383         7.87642        -1.15592
H         32.91044        10.30293        -1.28156
H         32.97140        12.33421        -0.90160
H         32.78561        14.68957        -1.54200
H         32.25017        16.24139        -3.01121
H         30.37498        20.07547        -2.33424
H         32.18394        18.70179        -3.38016
