         300
 CSIRO Nanostructure Databank - Neutral Graphene Oxide Data Set
C         30.31063        31.84280         0.07545
C         30.38907        32.94792         0.62459
C         30.34758        36.01851         1.15280
C         30.30082        37.25013         1.18949
C         30.24519        40.33425         0.58574
C         30.14257        41.47679         0.13311
C         32.59763        28.86516        -0.50420
C         31.57925        29.56032        -0.59748
C         32.73370        31.42616         0.56229
C         31.33448        30.80375         0.13299
C         32.75787        32.85520         1.10694
C         31.46119        33.67729         1.30609
C         32.72641        35.91582         1.30018
C         31.44229        35.15824         1.70612
C         32.67682        37.39498         0.89065
C         31.45850        38.15039         1.53348
C         32.68117        40.34173         0.68170
C         31.42238        39.60165         1.09155
C         32.52500        41.55822        -0.26964
C         31.26488        42.47525         0.12420
C         32.48399        44.25103        -0.90433
C         31.40218        43.66739        -0.77958
C         35.59767        27.47863        -1.32250
C         34.95048        28.00016        -0.19565
C         33.97487        29.13429        -0.06607
C         35.21261        31.58228        -0.13465
C         34.05569        30.68533         0.29175
C         35.16282        33.04199         0.27635
C         34.04334        33.63732         1.09563
C         35.17366        35.91730         0.71022
C         33.97725        35.17591         1.23093
C         35.18222        37.39610         0.60531
C         34.00602        38.16379         1.19471
C         35.14160        40.26627         0.34934
C         33.98729        39.61327         0.66826
C         35.14284        41.68248        -0.13042
C         33.84277        42.36070        -0.42225
C         35.06579        44.54956        -1.03109
C         33.84370        43.92062        -0.35521
C         35.41223        45.87151        -0.35585
C         38.08095        27.85093        -1.78761
C         36.72874        27.24875        -1.79776
C         37.93314        29.42797        -2.14112
C         36.60211        30.00487        -1.58711
C         37.75518        31.70001        -0.33472
C         36.55591        31.03093        -0.55119
C         37.76530        33.14280        -0.04583
C         36.45444        33.82852         0.18737
C         37.75382        35.94085         0.97877
C         36.47679        35.19098         0.81245
C         37.77534        37.47065         1.08514
C         36.50618        38.10518         0.50197
C         37.74969        40.33692         0.72453
C         36.47139        39.58094         0.34470
C         37.70639        41.81522         0.23878
C         36.40024        42.51503        -0.04879
C         37.64862        44.57596        -1.02008
C         36.38217        43.78404        -0.78767
C         37.84473        45.77020         0.03494
C         36.45968        46.35556         0.07760
C         40.23477        25.07994        -2.07354
C         39.30168        25.75408        -2.55115
C         40.55505        27.79914        -2.03329
C         39.22539        27.25265        -2.66830
C         40.53668        29.24736        -1.66091
C         39.23508        30.03572        -1.61145
C         40.28987        31.71990        -0.00539
C         39.04705        30.92919        -0.37367
C         40.27934        33.02037         0.38555
C         39.07037        33.85875         0.21608
C         40.28593        36.01092         1.16527
C         39.06886        35.29536         0.64001
C         40.28716        37.37943         1.02987
C         39.04273        38.00441         0.34445
C         40.23875        40.35254         0.57663
C         39.00880        39.58948         0.15987
C         40.23413        41.55227        -0.35092
C         38.93691        42.36418        -0.44840
C         40.22106        44.55213        -1.34681
C         38.93023        43.75578        -1.01129
C         40.22520        46.02637        -0.89482
C         38.91523        46.74154        -0.47156
C         40.24394        48.51015         0.85682
C         39.34089        47.70216         0.62226
C         42.75357        24.89055        -1.40389
C         41.51101        25.51497        -1.64576
C         42.84440        27.52385        -0.86545
C         41.58483        26.97806        -1.57784
C         43.00230        29.05451        -1.00703
C         41.63658        29.65296        -0.69704
C         42.74493        31.48810         0.77087
C         41.50756        30.88783         0.13852
C         42.77417        32.99315         0.92413
C         41.42473        33.64690         1.10886
C         42.70480        35.62498         2.01738
C         41.39533        35.07878         1.57531
C         42.72791        37.83402         1.78412
C         41.54109        38.22387         0.94087
C         42.68238        40.47785         0.92867
C         41.39269        39.73280         0.91232
C         42.68691        41.89445         0.37618
C         41.50589        42.38081        -0.42721
C         42.78448        44.63336        -0.86900
C         41.51575        43.79834        -0.94237
C         42.75444        46.10873        -1.17443
C         41.38396        46.73732        -1.08719
C         42.82696        48.62837         0.80742
C         41.54700        48.66236         0.28421
C         43.85641        25.35513        -1.02056
C         45.35744        27.44166        -0.62608
C         44.17736        26.82114        -1.30484
C         45.33501        28.77753        -0.10102
C         44.15875        29.52526        -0.11878
C         45.31253        31.44962         1.18011
C         44.05200        30.75426         0.69330
C         45.28730        32.91766         1.52378
C         44.04906        33.73461         1.22634
C         45.19092        35.96440         2.00368
C         43.94880        35.11786         1.82217
C         45.25965        37.64709         1.93437
C         43.96255        38.31259         1.50437
C         45.25250        40.39025         0.62324
C         43.98453        39.75997         1.12596
C         45.27275        41.83630         0.24003
C         43.98621        42.62365         0.23921
C         45.31877        44.77991        -0.31286
C         44.01513        44.06301        -0.23175
C         45.37118        46.30960        -0.70776
C         43.98154        46.89924        -0.74862
C         43.63658        47.94885         0.02264
C         47.68841        27.19545         0.14910
C         46.60399        26.83316        -0.36213
C         47.71313        28.45547         1.02340
C         46.67564        29.39883         0.31131
C         47.79900        31.41396         1.27438
C         46.62613        30.75781         1.00943
C         47.82151        32.94824         1.12448
C         46.62407        33.64014         1.84584
C         47.47410        36.01221         0.94908
C         46.49052        35.21735         1.72715
C         47.65794        37.37273         0.93655
C         46.34801        38.15004         0.93473
C         47.84059        40.33849         0.66490
C         46.53088        39.67109         0.98563
C         47.83384        41.80587         0.22457
C         46.55436        42.54111         0.10793
C         47.83268        44.58377        -0.88273
C         46.48239        43.83204        -0.68694
C         47.43791        45.67238        -1.88110
C         46.35166        46.27074        -1.86954
C         50.27794        28.73778         0.31456
C         49.05827        29.17251         1.01548
C         50.32335        31.45269         0.62131
C         49.10703        30.67833         1.17428
C         50.47079        32.82019         1.30445
C         49.18858        33.64279         1.51146
C         50.37961        35.73337         0.65731
C         49.33211        34.88615         0.66342
C         50.19349        37.11137         0.07613
C         48.86930        37.94056         0.24456
C         50.30717        40.09442        -0.22528
C         49.05721        39.46370         0.34219
C         50.46186        41.63244        -0.42995
C         49.09099        42.40444        -0.39667
C         50.32172        44.19474        -1.45171
C         48.92332        43.63074        -1.35237
C         51.32944        29.31205         0.01265
C         52.66691        31.63987         0.01460
C         51.70583        30.63381         0.63743
C         52.66754        32.83543         0.33308
C         51.73272        33.65001         1.13878
C         52.79735        35.91229         0.50402
C         51.69873        35.18705         1.28958
C         52.55584        37.10870         0.16061
C         51.45053        37.87160        -0.18568
C         52.56722        40.00925        -1.09105
C         51.34191        39.15565        -0.93676
C         52.62614        41.19555        -1.42353
C         51.39991        42.03296        -1.65760
C         51.35190        43.53612        -1.62522
O         40.19238        40.70354        -1.57690
O         37.10466        35.29584         2.12756
O         38.71913        42.61394        -1.88131
O         49.23149        37.31834        -1.01843
O         47.35147        40.19538         2.04330
O         45.07768        31.91617         2.54980
O         50.21070        39.78569         1.18935
O         48.78810        42.68163         0.98241
O         35.56904        29.71255        -2.20881
O         43.03637        45.16433        -2.22731
O         44.63238        44.74638         0.94454
O         45.18862        40.70246        -0.79966
O         34.92458        36.56872        -0.57628
O         40.21952        30.30692        -2.62759
O         39.25946        34.93950        -0.76309
O         32.02991        32.89305         2.37330
O         38.74126        30.06800         0.72378
O         39.07274        37.45370        -0.97321
O         43.16249        42.73699         1.45931
O         41.80739        42.66480        -1.82664
O         43.14583        30.65164         1.87646
O         34.62739        41.82550        -1.51661
O         37.01889        33.81666        -1.13793
O         43.35269        40.47942         2.23865
O         43.56027        33.62627        -0.15251
O         42.58582        36.81664         2.72841
O         51.44507        32.94033         2.37389
O         36.67573        38.70842        -0.82104
O         32.12565        40.46913         2.03247
O         46.12420        35.67571         3.07025
O         31.85642        30.64148         1.44006
O         37.11050        42.64831         1.29049
O         48.18581        35.29713        -0.00697
O         41.02012        33.97014         2.48037
O         41.24271        29.54098         0.68504
O         49.40294        29.77238         2.28969
O         34.13793        29.62918         1.29644
O         34.67628        32.61553        -1.03184
O         34.36709        34.25922         2.35518
O         41.39898        48.13665        -1.06574
O         49.99089        31.72669        -0.75810
H         50.82181        31.91831        -1.24880
O         50.82291        41.61946        -2.85938
H         51.41639        41.83055        -3.60815
O         38.27092        45.24108         1.26574
H         37.58107        44.63266         1.61718
O         37.88756        40.36455         2.14438
H         37.41805        41.16077         2.48370
O         37.53403        45.17371        -2.33014
H         38.41406        45.13314        -2.78335
O         40.23205        44.63486        -2.79216
H         40.47374        43.74142        -3.12967
O         37.88840        37.80399         2.46920
H         37.39049        37.13408         2.98997
O         39.08868        27.62531        -4.01015
H         39.87477        27.33391        -4.51372
O         34.25852        38.20357         2.60664
H         33.39728        38.35296         3.07438
O         47.60542        33.05329        -0.29641
H         48.35679        32.60483        -0.75976
O         38.48888        27.70145        -0.43939
H         38.48478        28.57847         0.09683
O         31.32264        35.21253         3.12778
H         31.71803        34.39212         3.50229
O         32.43312        37.49834        -0.52582
H         33.17976        37.06399        -1.00459
O         33.86221        44.28453         1.01354
H         33.01610        43.98854         1.43161
O         38.42746        47.51469        -1.54863
H         37.48972        47.74253        -1.36413
O         32.20839        41.00643        -1.54600
H         33.01553        41.03346        -2.11001
O         43.30676        29.42693        -2.36350
H         43.84590        28.71434        -2.78452
O         42.71399        27.22296         0.52483
H         42.09351        27.86441         0.94596
O         34.82445        44.70819        -2.40484
H         35.67198        44.99552        -2.82111
O         48.20934        45.21803         0.32195
H         49.17558        45.39407         0.30141
O         48.58557        43.13126        -2.64498
H         48.48104        43.90293        -3.24533
O         50.84683        38.90020        -2.25010
H         51.35534        38.16580        -2.65138
O         45.63595        38.07803         3.22342
H         44.90115        37.92351         3.85117
O         46.03498        46.99696         0.32608
H         46.91528        46.57680         0.48420
O         51.77561        35.52823         2.64520
H         51.65219        34.71107         3.18226
O         35.23757        27.41524         0.94685
H         34.84994        27.91905         1.70154
O         46.03895        43.37087        -1.99525
H         46.78214        42.89065        -2.43618
O         31.60449        38.11563         2.94731
H         30.92610        38.69017         3.35916
O         31.42839        42.94848         1.44541
H         30.60364        43.39025         1.73613
O         41.99512        37.95332        -0.43356
H         41.20179        37.94037        -1.02152
O         44.34427        26.95240        -2.72156
H         45.22506        26.59777        -2.96863
O         39.00712        39.85535        -1.29983
H         38.33376        37.84421        -1.49695
O         47.30145        28.17670         2.32655
H         48.07326        28.17507         2.93092
O         49.24289        34.12113         2.86423
H         48.52263        33.69746         3.39824
O         47.31164        29.68920        -0.96979
H         46.72705        30.28404        -1.48534
O         45.77015        37.86327        -0.36419
H         46.41191        38.07706        -1.07394
O         51.20790        42.10692         0.68464
H         50.73672        41.83577         1.50444
O         46.85822        33.35266         3.23522
H         46.26603        33.93171         3.77026
O         37.83694        29.63453        -3.53222
H         36.88404        29.60123        -3.77520
O         52.09870        30.41093         1.94477
H         52.93288        29.90106         1.96806
