         598
 CSIRO Nanostructure Databank - Neutral Graphene Oxide Data Set
C         23.21645        69.95565        -1.26334
C         22.69776        71.14576        -0.71264
C         21.93581        72.14964        -1.31386
C         22.91986        74.10130        -0.08162
C         21.91648        73.48344        -0.80527
C         25.45940        65.56715        -1.27919
C         25.09184        66.77088        -0.70209
C         24.31701        67.85735        -1.20329
C         25.27177        69.77673         0.38880
C         24.26038        69.17643        -0.69038
C         25.42286        71.31448         0.31879
C         24.27243        72.07635         0.42858
C         25.39926        74.19412         0.27031
C         24.19327        73.49139         0.24411
C         27.94177        61.28661        -0.77733
C         27.88532        62.68248        -0.81504
C         26.68752        63.43703        -0.93812
C         27.86488        65.56048        -0.50284
C         26.66273        64.84611        -0.85588
C         27.89380        67.04696        -0.39215
C         26.77109        67.79422         0.22055
C         27.91759        69.91308         0.27044
C         26.64824        69.14389         0.22315
C         27.91061        71.38812         0.23861
C         26.65598        72.04534         0.28288
C         27.85803        74.20111         0.41539
C         26.63920        73.49258         0.33526
C         30.18822        56.97770         0.03942
C         30.34370        58.33697        -0.43487
C         29.19652        59.12671        -0.50044
C         30.39449        61.24701        -0.56386
C         29.18148        60.56000        -0.66368
C         30.45793        62.71059        -0.68031
C         29.14070        63.45826        -0.81988
C         30.35625        65.55426        -0.29856
C         29.11583        64.89299        -0.49109
C         30.45768        67.01402        -0.54120
C         29.17605        67.79282        -0.55954
C         30.44141        70.01110        -0.21914
C         29.20307        69.19882        -0.01821
C         30.39210        71.43621         0.18730
C         29.12005        72.10633         0.25914
C         30.33750        74.23573         0.53839
C         29.11077        73.54168         0.40688
C         32.72622        52.68914         0.11434
C         32.66364        54.06897         0.23756
C         31.37326        54.69733         0.38239
C         33.10800        56.97114        -0.44949
C         31.13892        55.97445        -0.16264
C         32.99163        58.35592        -0.33581
C         31.67647        59.00011        -0.67196
C         32.86588        61.22012        -0.02971
C         31.66655        60.51421        -0.59442
C         32.82253        62.69400         0.23485
C         31.61149        63.45060        -0.14817
C         32.73765        65.54431         0.56169
C         31.56933        64.82937        -0.04016
C         32.80932        67.05893         0.49648
C         31.73097        67.75327        -0.27096
C         32.93447        69.91397         0.36361
C         31.74346        69.25797        -0.20629
C         32.82577        71.35675         0.61843
C         31.58023        72.11715         0.35160
C         32.81279        74.24470         0.62326
C         31.59353        73.56090         0.53131
C         35.20722        48.47489        -0.05098
C         35.19827        49.85828        -0.21753
C         33.97244        50.58615        -0.10827
C         35.21474        52.69901        -0.08930
C         33.95125        51.97052        -0.06250
C         35.22866        54.03207         0.20966
C         33.98265        54.79598         0.55238
C         35.33114        56.94208         0.44276
C         34.16432        56.23963         0.10467
C         35.37135        58.35592         0.30056
C         34.17711        59.05449        -0.02020
C         35.42066        61.25675         0.30640
C         34.18865        60.52379        -0.12310
C         35.26316        62.64836         0.84153
C         34.14025        63.47434         0.23498
C         35.12628        65.58702         1.37981
C         33.98145        64.84091         0.83594
C         35.19048        67.05819         1.16136
C         34.10507        67.75928         0.69865
C         35.32763        69.93789         0.98032
C         34.09708        69.22044         0.66399
C         35.36756        71.34962         0.87013
C         34.10522        72.11178         0.81447
C         35.37869        74.23573         0.75019
C         34.11438        73.54428         0.33135
C         37.61044        44.23427         0.82470
C         37.24049        45.34446         0.06790
C         36.29500        46.35937         0.31612
C         37.60874        48.36542        -0.60060
C         36.38570        47.69279        -0.17384
C         37.62408        49.81440        -0.67266
C         36.44343        50.55122        -0.43865
C         37.65750        52.69604        -0.51402
C         36.46759        51.98746        -0.35486
C         37.64060        54.21349        -0.41570
C         36.56253        54.64857         0.59599
C         37.86585        56.90361         0.67234
C         36.55912        56.17690         0.77722
C         37.86264        58.38360         0.62543
C         36.59995        59.09016         0.60811
C         37.75629        61.20718         1.22642
C         36.57628        60.47139         0.76902
C         37.77314        62.68038         1.24149
C         36.46667        63.34237         1.41960
C         37.73872        65.53674         1.58042
C         36.43880        64.82636         1.65547
C         37.68563        66.99601         1.86338
C         36.41308        67.77794         1.60735
C         37.71775        69.94083         1.54089
C         36.50771        69.24074         1.34175
C         37.76734        71.34944         1.31175
C         36.57256        72.05688         1.01563
C         37.79713        74.21349         1.05005
C         36.55262        73.52539         0.94403
C         40.18856        40.12824         1.43039
C         40.19142        41.55634         1.25291
C         38.97136        42.26439         1.15309
C         40.13005        44.30910         0.38108
C         38.90018        43.60109         0.71364
C         40.15188        45.63158        -0.14380
C         39.01455        46.27534        -0.68827
C         40.07960        48.42622        -1.00108
C         38.84516        47.68412        -0.72704
C         40.05562        49.87459        -1.10323
C         38.85047        50.55288        -0.94693
C         40.05012        52.73103        -1.08411
C         38.86016        52.00920        -0.88924
C         40.20029        54.07823        -0.47750
C         38.99828        54.84681        -0.11550
C         40.34769        56.92137         0.17262
C         39.09542        56.16803         0.26388
C         40.32789        58.37985         0.33223
C         39.06908        59.06041         0.60527
C         40.22156        61.34578         0.60184
C         39.10516        60.48410         0.98653
C         40.18629        62.72844         0.75294
C         38.94904        63.40754         1.14571
C         40.19544        65.65913         1.09837
C         38.91470        64.86716         1.31508
C         40.27182        66.95425         1.92274
C         38.98756        67.72414         2.06045
C         40.25495        70.00518         1.92634
C         38.94152        69.24184         2.03942
C         40.22634        71.41681         1.47825
C         39.02688        72.07904         1.33087
C         40.22902        74.25158         1.04003
C         39.01629        73.53293         1.14063
C         42.71383        35.85495         1.73233
C         42.63316        37.24484         1.63371
C         41.41478        37.95502         1.51990
C         42.65127        40.10632         1.45882
C         41.36019        39.37456         1.44346
C         42.66832        41.60943         1.34799
C         41.39556        42.29855         1.13480
C         42.61770        44.39603         0.74282
C         41.39730        43.68370         0.75372
C         42.62828        45.84647         0.55566
C         41.34140        46.48480         0.06237
C         42.62096        48.62821        -0.62153
C         41.42338        47.77229        -0.69446
C         42.61881        49.90766        -1.20890
C         41.29973        50.53202        -1.51632
C         42.55313        52.81575        -1.76708
C         41.24425        52.07839        -1.61646
C         42.56748        54.29988        -1.53888
C         41.50079        54.85067        -0.62747
C         42.78219        57.00444        -0.34551
C         41.49722        56.29097        -0.28522
C         42.74583        58.53779        -0.20577
C         41.44404        59.15994         0.06517
C         42.55710        61.44892        -0.42262
C         41.34691        60.64382        -0.05537
C         42.58400        62.96319        -0.22839
C         41.41296        63.51401         0.59656
C         42.77024        65.46906         1.27523
C         41.45706        64.81232         1.03314
C         42.83125        66.94086         1.59977
C         41.56839        67.73116         1.87323
C         42.71731        69.88902         1.14748
C         41.55525        69.23234         1.84182
C         42.77078        71.38325         1.19988
C         41.50243        72.15800         1.37994
C         42.67640        74.27259         0.78719
C         41.48506        73.60181         1.02657
C         45.18804        33.11877         2.40079
C         43.97417        33.78490         2.19976
C         45.21011        35.82576         1.60736
C         43.96276        35.15085         1.85619
C         45.13080        37.22613         1.31481
C         43.92857        38.02897         1.75931
C         45.11658        40.10378         0.87936
C         43.82786        39.32090         0.93025
C         45.09209        41.52464         0.84790
C         43.93119        42.27256         0.98023
C         45.14282        44.44051         0.49102
C         43.94287        43.77455         1.15215
C         45.13294        45.74275         0.10060
C         43.92138        46.58070         0.30421
C         45.10296        48.62588        -0.75537
C         43.88887        48.00087        -0.22512
C         45.09198        49.96850        -1.14128
C         43.84184        50.64188        -1.33144
C         45.14657        52.84064        -1.65620
C         43.87217        52.06585        -1.73369
C         45.14517        54.23192        -1.84883
C         43.86077        55.03757        -1.73067
C         44.78111        57.32589        -1.66327
C         43.88608        56.43439        -1.16364
C         45.04191        58.68144        -1.22040
C         43.86055        59.37131        -0.73696
C         45.05614        61.51876        -0.93228
C         43.83346        60.73863        -0.66968
C         45.11578        62.85712        -0.28580
C         43.95840        63.46558         0.16700
C         45.36477        65.50234         0.84562
C         44.04125        64.73832         0.89916
C         45.39306        66.99371         1.04395
C         44.11566        67.72038         1.38975
C         45.26051        69.91228         0.72207
C         44.00008        69.14871         0.93246
C         45.23763        71.31364         0.56042
C         43.94400        72.03812         0.53658
C         45.21501        74.22969         0.43398
C         43.92295        73.56435         0.45654
C         46.39819        33.78892         2.26233
C         47.74828        35.79138         1.85373
C         46.46179        35.14272         1.83096
C         48.03634        36.96125         1.14063
C         46.16890        37.92674         0.73487
C         47.60831        39.95538         0.63614
C         46.31870        39.36244         0.75696
C         47.59505        41.40379         0.31286
C         46.39895        42.21099         0.72109
C         47.66400        44.34111         0.03836
C         46.42332        43.69261         0.52534
C         47.64765        45.69139        -0.34994
C         46.33346        46.36200        -0.53140
C         47.58822        48.53522        -1.08481
C         46.31842        47.82453        -0.90300
C         47.60341        49.92399        -1.24358
C         46.35682        50.66697        -1.33096
C         47.65008        52.72531        -1.52000
C         46.37417        52.06044        -1.53249
C         47.67578        54.14209        -1.91622
C         46.42758        54.90799        -1.97137
C         47.73966        57.06195        -1.92595
C         46.58955        56.26205        -2.25020
C         47.60559        58.45917        -1.26824
C         46.29495        59.26743        -1.34608
C         47.63729        61.39605        -0.83239
C         46.36580        60.73622        -1.18541
C         47.61937        62.78815        -0.52843
C         46.40904        63.50693        -0.22179
C         47.69102        65.60748        -0.04464
C         46.49265        64.87395         0.13358
C         47.69636        67.06086         0.05652
C         46.51793        67.75677         0.45245
C         47.64409        69.92715         0.16125
C         46.47637        69.19298         0.47548
C         47.66567        71.35821         0.21434
C         46.42194        72.05555         0.33733
C         47.65105        74.19422         0.22928
C         46.41528        73.50812         0.30576
C         49.01677        37.95808         1.32342
C         50.07783        40.08683         0.77826
C         48.87597        39.30574         0.84615
C         50.13615        41.44277         0.41859
C         48.87584        42.14925         0.11409
C         50.09773        44.30576        -0.13802
C         48.87818        43.63118         0.06337
C         50.09459        45.68016        -0.50054
C         48.85114        46.34281        -0.69182
C         50.14776        48.49806        -1.23407
C         48.81044        47.73455        -1.19292
C         50.10587        49.95701        -1.10561
C         48.87539        50.63213        -1.22041
C         50.07478        52.83804        -0.86087
C         48.84493        52.06379        -1.27831
C         50.19244        54.24442        -1.38154
C         48.98911        54.91774        -1.89647
C         50.21035        57.09975        -1.70347
C         48.93112        56.38359        -1.79001
C         50.16311        58.64303        -1.54777
C         48.86450        59.30736        -1.36284
C         50.12258        61.31772        -0.66663
C         48.86491        60.65627        -0.95209
C         50.08531        62.71702        -0.24566
C         48.85214        63.48655        -0.38787
C         50.15065        65.60369        -0.44622
C         48.89778        64.89445        -0.27911
C         50.06956        67.04973        -0.74045
C         48.83968        67.76364        -0.36471
C         50.13324        69.99234        -0.42056
C         48.82014        69.22492        -0.36881
C         50.17154        71.30763         0.33185
C         48.88806        72.07099         0.17030
C         50.11147        74.20698         0.27597
C         48.89895        73.50417         0.21992
C         51.32581        42.19367         0.39599
C         52.54152        44.30347         0.06250
C         51.34637        43.58368         0.08111
C         52.59199        45.69606        -0.26037
C         51.35810        46.39455        -0.62354
C         52.63107        48.50529        -0.98704
C         51.37470        47.75508        -0.88525
C         52.60748        49.97082        -0.87391
C         51.35984        50.67447        -0.94644
C         52.59346        52.79915        -0.88971
C         51.36774        52.07785        -0.94326
C         52.61639        54.22924        -0.96091
C         51.37943        54.95181        -1.18946
C         52.62731        57.09398        -1.16552
C         51.42225        56.37971        -1.35190
C         52.61208        58.53899        -1.03544
C         51.40849        59.26849        -1.07155
C         52.61617        61.34980        -0.49333
C         51.36313        60.65237        -0.71620
C         52.65557        62.76522        -0.39409
C         51.42207        63.50334        -0.16783
C         52.63647        65.65360        -0.58928
C         51.37615        64.95203        -0.43714
C         52.65529        67.07200        -0.67128
C         51.39416        67.82038        -0.85035
C         52.58519        69.97253        -0.47845
C         51.41111        69.26504        -0.53522
C         52.60249        71.42144        -0.24948
C         51.43417        72.08562         0.05163
C         52.60026        74.32028        -0.10110
C         51.43428        73.52639         0.50486
C         53.79414        46.38397        -0.13963
C         55.06988        48.59475        -0.17301
C         53.94621        47.76081        -0.58687
C         55.05521        49.96691        -0.36144
C         53.81854        50.66705        -0.69723
C         55.05013        52.82138        -0.66921
C         53.82057        52.09355        -0.73627
C         55.08090        54.20154        -0.88850
C         53.85011        54.92389        -0.98840
C         55.07196        57.07397        -0.89817
C         53.84088        56.36566        -1.02033
C         55.06975        58.47102        -0.73197
C         53.84879        59.22274        -0.73078
C         55.05284        61.35416         0.01943
C         53.83316        60.61715        -0.49943
C         55.09875        62.80891        -0.39587
C         53.88897        63.49953        -0.46463
C         55.09983        65.66876        -0.49216
C         53.87084        64.94978        -0.53078
C         55.10624        67.09551        -0.54506
C         53.86797        67.78155        -0.63812
C         55.14540        70.00870        -0.62333
C         53.84929        69.25660        -0.76503
C         55.10702        71.43921        -0.25310
C         53.88475        72.13399        -0.21214
C         55.09689        74.22003         0.16199
C         53.89976        73.55231        -0.01475
C         56.23297        50.74612        -0.09729
C         57.43752        52.89193        -0.00729
C         56.26659        52.11784        -0.29332
C         57.56442        54.23520        -0.34467
C         56.41831        54.86372        -1.17910
C         57.45837        57.11931        -1.30921
C         56.32293        56.37362        -1.05726
C         57.61118        58.51241        -1.06858
C         56.36095        59.16699        -0.59384
C         57.50756        61.37443        -0.80800
C         56.35442        60.61002        -0.25484
C         57.55195        62.81208        -0.49521
C         56.35134        63.51314        -0.38707
C         57.55547        65.67185        -0.33276
C         56.34779        64.96475        -0.37715
C         57.58065        67.10129        -0.37549
C         56.35478        67.82043        -0.46330
C         57.57289        69.93402        -0.10695
C         56.37985        69.23938        -0.38894
C         57.56835        71.36940         0.05432
C         56.33727        72.10231        -0.00556
C         57.56252        74.19034         0.41444
C         56.34246        73.52108         0.20188
C         58.75661        54.91778         0.05301
C         60.03157        57.12448        -0.00390
C         59.19135        56.13101        -0.51447
C         60.07483        58.49144        -0.47175
C         58.86333        59.15592        -0.98656
C         59.97086        61.49084        -1.28514
C         58.76663        60.64384        -1.17376
C         60.09578        62.78996        -0.81174
C         58.85133        63.45920        -0.33147
C         60.08887        65.67190        -0.62603
C         58.83476        64.95666        -0.18817
C         60.06449        67.09626        -0.12043
C         58.81516        67.80290        -0.19265
C         60.01619        69.90095         0.29584
C         58.80209        69.20961         0.00980
C         60.00985        71.32267         0.43222
C         58.77901        72.04947         0.31182
C         60.01758        74.15592         0.65266
C         58.78773        73.48405         0.46529
C         61.24071        59.18914        -0.05218
C         62.57857        61.37549        -0.04466
C         61.71351        60.43882        -0.54623
C         62.69774        62.72690        -0.74753
C         61.35509        63.47669        -0.66184
C         62.50152        65.53172         0.08206
C         61.34607        64.86360        -0.33758
C         62.42473        66.92219         0.57239
C         61.21556        67.73634         0.29594
C         62.42642        69.85643         0.77585
C         61.22859        69.16621         0.48649
C         62.44920        71.28488         0.79026
C         61.22636        72.01374         0.65874
C         62.48091        74.12910         0.84571
C         61.24396        73.45292         0.72281
C         63.84650        63.51522        -0.18095
C         64.98137        65.58329         0.48418
C         63.77553        64.84414         0.17655
C         64.99235        66.94182         0.76168
C         63.68777        67.61702         1.00012
C         64.97037        69.83374         1.07195
C         63.65933        69.11064         1.11105
C         64.94045        71.26819         0.68227
C         63.67880        72.00346         0.82676
C         64.96344        74.11947         0.97306
C         63.70747        73.42550         0.85240
C         66.20784        67.69265         0.80808
C         67.44969        69.83169         1.00052
C         66.24837        69.08745         0.92282
C         67.47359        71.24359         1.08129
C         66.25345        72.01507         0.74935
C         67.41614        74.11292         1.34842
C         66.18915        73.46476         1.01631
C         68.62363        71.97664         1.41245
C         68.58501        73.38319         1.51754
O         43.19300        52.41172        -2.99971
O         23.06303        71.39590         0.63649
O         50.63957        67.43994        -2.04174
O         61.07331        60.81037        -1.78413
O         45.51364        56.95394        -2.78591
O         43.00800        69.31344        -0.16558
O         39.63847        67.06164         3.20543
O         48.09707        41.64090        -1.04962
O         44.99275        64.71100         2.00843
O         64.30041        69.60055         2.35143
O         46.09808        46.73438        -1.93326
O         41.56205        61.09132        -1.46462
O         35.56753        65.18979         2.74465
O         40.87716        47.73059        -2.04418
O         32.62880        61.73705         1.32846
O         48.48478        54.33059        -3.14801
O         65.66951        71.59416        -0.54098
O         29.98717        63.18661        -1.99124
O         36.79709        67.38148         2.96308
O         49.52367        47.96367        -2.44825
O         28.77919        69.34651         1.36982
O         47.15559        37.21357         0.05619
O         58.99146        64.12876         0.99020
O         42.89919        65.94347         2.65731
O         31.45267        67.26694        -1.61239
O         62.84174        66.97637         2.00125
O         32.11303        56.29782        -1.13369
O         42.82836        55.00004        -2.79038
O         50.73435        63.03352         1.03671
O         33.29391        71.79087         1.97291
O         43.18975        57.65222         0.89615
O         41.84880        68.53335         3.06965
O         42.43745        71.89465         2.51477
O         57.76795        61.03051        -2.21582
O         41.06003        51.22583        -2.77561
O         46.66154        43.08857         1.87854
O         53.54708        47.98488        -1.98618
O         32.30732        66.41971         1.70224
O         50.35521        58.00347        -2.85658
O         31.20250        69.83523        -1.44705
O         49.31896        69.91841        -1.60665
O         45.62287        61.43710        -2.26434
O         35.48345        62.65116         2.26735
O         37.27934        56.52758         2.00074
O         58.59402        56.43610        -1.76629
O         35.11266        61.08067        -1.13188
O         41.73475        46.59286         1.45573
O         54.54964        69.75570        -1.95780
O         37.96477        45.48652        -1.14114
O         38.53982        60.66147         2.32064
O         28.29713        67.65360        -1.70760
O         44.11018        47.67922         1.25226
O         25.67325        67.00818         0.55911
O         42.83749        40.88913         2.64986
O         39.55329        69.85055         3.20206
O         45.10915        67.47973         2.41159
O         56.66645        59.67967         0.82286
O         31.82938        59.81916        -1.87907
O         41.26833        54.02368         0.55979
O         43.67123        72.65757        -0.73218
O         43.48146        38.95681        -0.43190
H         44.21692        38.42458        -0.80458
O         49.84355        53.03714         0.60460
H         50.67225        53.40372         0.98283
O         42.33464        63.55791        -1.54288
H         41.85855        62.87738        -2.07595
O         50.26836        70.96419         1.77594
H         49.35989        70.79139         2.10665
O         54.88306        61.39949         1.46876
H         55.34678        60.60506         1.82698
O         37.22362        54.74591        -1.70469
H         37.74526        54.30618        -2.40873
O         52.31877        74.60878        -1.47993
H         52.34867        73.76981        -1.98497
O         47.60666        58.04661         0.16542
H         47.58381        58.85928         0.71637
O         36.86371        54.05864         1.88158
H         37.34017        54.75009         2.40678
O         34.18771        73.42852        -1.14463
H         34.23379        74.33582        -1.51388
O         34.50061        63.69906        -1.16374
H         34.65232        62.81151        -1.57977
O         44.10062        38.40443         3.14290
H         44.04236        37.59412         3.68977
O         33.95692        54.87156         2.02177
H         34.83136        54.56823         2.35971
O         44.08712        44.01040         2.58492
H         44.98145        43.67553         2.83491
O         24.75548        69.45016         1.68695
H         23.88681        69.90296         1.77472
O         51.64044        73.49857         1.95446
H         51.13174        72.72629         2.29944
O         56.71777        54.54660        -2.56897
H         57.56721        54.99764        -2.78108
O         40.10824        66.20150        -0.27365
H         40.25503        65.46572        -0.90800
O         63.03399        62.54765        -2.15294
H         62.40401        61.88143        -2.51611
O         59.98139        65.75887        -2.08087
H         60.78370        66.20311        -2.42627
H         22.83354        75.18755         0.07762
H         25.40679        75.28932         0.17005
H         27.82986        75.29777         0.50060
H         30.32192        75.33092         0.64551
H         32.80937        75.34109         0.72833
H         35.42101        75.33585         0.70804
H         37.80299        75.31060         0.96654
H         40.18832        75.33823         0.87359
H         42.66482        75.36814         0.68292
H         45.25258        75.31916         0.57909
H         47.65190        75.29436         0.23056
H         50.08671        75.30661         0.31557
H         52.69485        75.30020         0.42663
H         55.09721        75.31229         0.29419
H         57.56451        75.28223         0.54821
H         60.02203        75.25312         0.73425
H         62.48877        75.22815         0.89354
H         64.93621        75.20973         1.12087
H         67.42227        75.20238         1.49598
H         22.74104        69.57066        -2.18073
H         21.39953        71.94055        -2.25110
H         21.10516        74.13346        -1.17141
H         24.91236        65.17463        -2.15013
H         23.65713        67.63927        -2.06050
H         27.00401        60.71252        -0.81683
H         25.74324        62.90182        -1.11725
H         29.26996        56.74340         0.59954
H         28.22367        58.62926        -0.36508
H         31.78759        52.11557         0.06059
H         30.54724        54.11164         0.81679
H         34.26662        47.96633         0.20700
H         33.03401        50.02220        -0.00057
H         36.92261        43.84637         1.59128
H         35.45511        46.13531         0.99182
H         39.21412        39.61912         1.48145
H         38.03276        41.73236         1.36766
H         41.78525        35.26260         1.75150
H         40.47061        37.38763         1.50669
H         45.18398        32.05974         2.69399
H         43.02230        33.25515         2.34659
H         47.33873        33.25537         2.46119
H         48.51624        35.36542         2.51767
H         49.93591        37.70983         1.87643
H         51.02459        39.57607         1.01297
H         52.27993        41.69394         0.62246
H         53.48558        43.78669         0.29109
H         54.65906        45.88089         0.31862
H         55.95709        48.11171         0.26334
H         57.14391        50.22160         0.22812
H         58.29202        52.37790         0.46059
H         59.34037        54.47969         0.87816
H         60.72079        56.85416         0.81113
H         61.91405        58.64111         0.62616
H         63.01958        61.24400         0.95275
H         64.82808        63.01697        -0.18970
H         65.93980        65.05325         0.37544
H         67.15462        67.14364         0.69106
H         68.40272        69.28446         1.06456
H         69.56292        71.44501         1.62141
H         69.51015        73.91417         1.78329
