         732
 CSIRO Nanostructure Databank - Neutral Graphene Oxide Data Set
C         22.98937        24.59375         1.52648
C         21.79914        25.29464         1.84557
C         23.00658        27.41604         1.89229
C         21.80315        26.65758         2.03096
C         23.01008        28.82445         1.89130
C         21.83179        29.60500         2.00041
C         23.09774        31.71382         1.86160
C         21.86579        30.98193         1.93421
C         23.11525        33.15097         1.74544
C         21.89956        33.92177         1.83870
C         23.02258        35.94068         1.01882
C         21.86434        35.25735         1.59515
C         23.06614        37.41522         0.91669
C         21.86672        38.14651         0.91032
C         23.06505        40.20603         0.45259
C         21.85757        39.51467         0.68512
C         23.06681        41.64230         0.20971
C         21.83237        42.34385        -0.07553
C         22.95064        44.53988         0.27292
C         21.77496        43.69321        -0.14034
C         22.96610        45.94228        -0.29570
C         21.80618        46.57746        -0.71861
C         22.98750        48.63425        -1.23033
C         21.85426        47.88961        -1.29383
C         25.48484        23.09073         1.05598
C         25.46394        24.53771         1.22204
C         24.20600        25.25207         1.43047
C         25.45194        27.37261         1.58819
C         24.24911        26.69071         1.64071
C         25.50650        28.81250         2.03826
C         24.29046        29.54714         1.50865
C         25.56571        31.69656         1.93011
C         24.31622        31.01920         1.84412
C         25.59208        33.13923         1.81716
C         24.34426        33.80555         1.58078
C         25.60823        35.95196         1.12402
C         24.35699        35.18385         1.08492
C         25.57730        37.34552         0.86506
C         24.30643        38.07633         0.72318
C         25.53855        40.21025         0.29035
C         24.27994        39.47503         0.49099
C         25.52593        41.69213         0.31665
C         24.26472        42.37387         0.20173
C         25.45018        44.50876        -0.08755
C         24.26408        43.81123         0.07516
C         25.44746        45.95704        -0.28496
C         24.20751        46.64184        -0.34287
C         25.47032        48.79766        -0.75400
C         24.15664        48.14470        -0.41164
C         25.49767        50.18645        -0.96533
C         27.89837        23.09455         0.61319
C         26.62043        22.42128         0.71753
C         27.95899        24.46710         1.24884
C         26.65890        25.22319         1.15206
C         28.00078        27.44293         1.28585
C         26.68518        26.69351         1.19819
C         28.02806        28.86683         1.70368
C         26.80905        29.55175         1.79278
C         28.04703        31.65449         2.23227
C         26.78611        30.95942         1.94543
C         28.03285        33.20174         2.25030
C         26.80314        33.87155         1.80342
C         28.04424        36.00806         1.38294
C         26.82425        35.27862         1.43226
C         28.04094        37.38970         1.10250
C         26.80564        38.04281         0.86554
C         28.01147        40.25859         0.97599
C         26.81965        39.47936         0.54138
C         27.98504        41.75981         0.69388
C         26.71289        42.39483         0.28720
C         27.91890        44.45512        -0.27517
C         26.72629        43.80857        -0.02506
C         27.90921        45.85483        -0.83806
C         26.65720        46.63927        -0.53646
C         27.92470        48.74753        -0.94451
C         26.67693        48.05678        -0.75691
C         27.92906        50.16342        -1.14406
C         26.69115        50.85683        -1.17463
C         30.21827        20.35014        -0.28501
C         29.08230        21.08217        -0.29175
C         30.32858        23.22289         0.02232
C         29.03816        22.46282         0.18487
C         30.39281        24.58612         0.68689
C         29.20461        25.27627         0.96101
C         30.48178        27.33413         1.36626
C         29.25559        26.65497         1.27019
C         30.56237        28.73056         1.95388
C         29.28784        29.56094         1.82331
C         30.61319        31.65843         2.25780
C         29.31845        30.92748         2.07866
C         30.68610        33.20302         2.42334
C         29.34120        33.95268         2.24619
C         30.59980        36.02910         1.39599
C         29.32721        35.37425         1.78537
C         30.56831        37.41966         1.12817
C         29.30120        38.14804         1.09213
C         30.52898        40.33652         1.17043
C         29.28972        39.53203         1.05048
C         30.49247        41.87818         1.05200
C         29.23940        42.39907         0.38375
C         30.39871        44.59642         0.23088
C         29.24015        43.72098        -0.31835
C         30.39597        45.96639        -0.41286
C         29.19350        46.62745        -0.61514
C         30.39031        48.76582        -0.83803
C         29.16965        48.04363        -0.83921
C         30.39014        50.19422        -0.99013
C         29.16844        50.87855        -1.21836
C         30.36683        52.99976        -1.43056
C         29.23096        52.28047        -1.58255
C         32.82196        18.78272        -0.11855
C         32.77386        20.18323        -0.05813
C         31.47462        20.87435         0.37172
C         32.81132        23.02575         0.42363
C         31.52374        22.36682         0.26899
C         32.88472        24.47725         0.72844
C         31.62725        25.25293         0.82645
C         32.97782        27.32853         1.27040
C         31.67558        26.61588         1.17532
C         32.95721        28.81314         1.16923
C         31.80146        29.48168         1.49168
C         33.07306        31.67885         1.42314
C         31.85979        30.92544         1.81402
C         33.04215        33.13246         1.48537
C         31.86201        33.85898         1.66679
C         33.01040        36.02054         1.06859
C         31.82707        35.30506         1.41321
C         32.99611        37.41155         0.79073
C         31.77435        38.11552         0.86417
C         32.98515        40.31434         0.38709
C         31.81292        39.59329         0.92670
C         32.93220        41.68616         0.12378
C         31.72865        42.47979         0.38132
C         32.78567        44.44326        -0.76189
C         31.68284        43.80607         0.04417
C         32.86162        45.94461        -0.63576
C         31.64335        46.66080        -0.56379
C         32.86769        48.77230        -0.85935
C         31.63156        48.07477        -0.73274
C         32.85464        50.23239        -0.90780
C         31.61683        50.91216        -0.93131
C         32.85424        53.12076        -0.93580
C         31.54760        52.40206        -0.70650
C         32.89088        54.51678        -0.97588
C         35.23065        18.81747        -0.55454
C         34.02462        18.11966        -0.35728
C         35.19752        20.23958        -0.58081
C         33.97035        20.89375        -0.29341
C         35.24304        23.12936        -0.36185
C         33.96151        22.36661        -0.25435
C         35.29433        24.51986         0.14691
C         34.17291        25.18331         0.52552
C         35.41460        27.37561         0.43233
C         34.24697        26.60720         0.93716
C         35.34350        28.83256         0.39261
C         34.18391        29.52360         0.83157
C         35.48666        31.65049         0.77108
C         34.18305        30.96270         0.97681
C         35.57700        33.12040         0.98248
C         34.33461        33.85899         1.37748
C         35.51387        36.02685         0.61988
C         34.31590        35.34927         1.16274
C         35.46412        37.42053         0.39510
C         34.22449        38.14165         0.49965
C         35.38453        40.19944        -0.18662
C         34.19463        39.53192         0.21745
C         35.30454        41.57788        -0.78410
C         34.10848        42.38662        -0.35984
C         35.33362        44.47731        -0.90587
C         34.10958        43.74573        -0.61108
C         35.32615        45.88152        -1.02211
C         34.07773        46.62325        -0.87497
C         35.30530        48.80567        -1.34089
C         34.06534        48.04473        -0.94759
C         35.34137        50.18428        -0.67804
C         34.06758        50.95831        -0.90724
C         35.30036        53.11245        -1.12457
C         34.07517        52.39287        -0.97889
C         35.32816        54.52809        -1.15620
C         34.09654        55.21112        -1.07455
C         37.78935        16.05708        -0.34314
C         36.58727        16.74188        -0.30778
C         37.70483        18.79780        -0.97656
C         36.51238        18.11232        -0.63360
C         37.62425        20.27243        -1.36488
C         36.42567        20.99511        -0.77688
C         37.72380        23.11322        -0.58449
C         36.48395        22.35998        -0.55368
C         37.77224        24.48355        -0.35739
C         36.62924        25.19693         0.32495
C         37.66223        27.37204        -0.66239
C         36.52812        26.68095         0.04065
C         37.71422        28.84272        -0.33978
C         36.54643        29.52189        -0.00466
C         37.81680        31.71110        -0.20766
C         36.47493        31.01820        -0.18132
C         37.83920        33.15893        -0.08724
C         36.71561        33.86376         0.38701
C         37.91273        35.99068         0.03847
C         36.70561        35.29023         0.36791
C         37.89065        37.40662        -0.08112
C         36.67054        38.11523         0.04638
C         37.81835        40.24714        -0.51133
C         36.60554        39.52020        -0.22965
C         37.81482        41.63417        -0.69690
C         36.59429        42.36538        -0.74857
C         37.81994        44.45619        -1.43284
C         36.57452        43.74284        -0.95159
C         37.82106        45.93803        -1.16372
C         36.58288        46.62286        -1.12613
C         37.80074        48.76452        -1.08001
C         36.59112        48.04334        -1.11932
C         37.79121        50.22555        -1.13080
C         36.59120        50.91916        -1.09722
C         37.88343        53.13593        -1.25084
C         36.54076        52.35409        -1.34280
C         37.83099        54.58473        -0.97618
C         36.60141        55.26918        -1.13531
C         37.85014        57.36431        -1.09335
C         36.64125        56.68016        -1.16304
C         40.34901        14.65902        -0.36571
C         40.23630        15.95831        -0.80588
C         38.98306        16.70131        -0.73408
C         40.16464        18.77622        -1.48819
C         38.91718        18.08135        -1.07141
C         40.17198        20.30257        -1.42880
C         38.92049        21.02053        -1.10648
C         40.21941        23.08120        -0.59655
C         38.94387        22.35948        -0.81782
C         40.22843        24.55215        -0.67282
C         39.00052        25.23905        -0.53079
C         40.18838        27.38127        -0.67266
C         38.98510        26.65558        -0.55957
C         40.17089        28.83105        -0.70002
C         38.95485        29.53788        -0.54928
C         40.18741        31.67388        -0.94726
C         38.95528        30.98324        -0.50661
C         40.21706        33.17311        -0.90712
C         39.04317        33.88476        -0.37374
C         40.45023        35.98322        -0.24612
C         39.11238        35.26397        -0.22680
C         40.31341        37.40166        -0.72117
C         39.09176        38.09461        -0.50161
C         40.16747        40.16606        -1.19229
C         39.04130        39.50060        -0.66403
C         40.35888        41.60008        -0.85455
C         39.09623        42.40010        -0.49079
C         40.32189        44.50406        -1.07015
C         39.11421        43.78908        -1.06649
C         40.31281        45.94486        -1.08404
C         39.05097        46.64301        -1.10991
C         40.27408        48.79533        -0.91393
C         39.04180        48.06894        -1.04114
C         40.24595        50.19974        -0.82895
C         39.04907        50.94104        -1.03484
C         40.27013        53.06736        -0.60371
C         39.07308        52.35230        -0.94904
C         40.22074        54.48107        -0.38881
C         39.03450        55.28031        -0.67425
C         40.32981        57.46656        -0.93282
C         39.06553        56.70445        -0.82906
C         40.54562        58.47055        -1.89719
C         42.73735        14.55057        -0.87272
C         41.57327        13.93672        -0.46097
C         42.74499        15.92389        -1.23711
C         41.41686        16.58716        -1.51076
C         42.65402        18.78907        -1.42199
C         41.45692        18.08847        -1.38023
C         42.65571        20.24000        -1.34737
C         41.46895        20.94556        -1.23455
C         42.73159        23.12263        -1.12810
C         41.51132        22.35632        -0.82363
C         42.69936        24.55410        -1.04146
C         41.45060        25.25272        -0.80535
C         42.66967        27.39848        -0.81325
C         41.43387        26.67881        -0.76509
C         42.66525        28.82440        -0.82314
C         41.42867        29.53734        -0.80539
C         42.68851        31.63627        -1.12445
C         41.46794        30.94047        -0.94490
C         42.67625        33.08089        -1.46321
C         41.51108        33.87850        -1.03492
C         42.80477        35.95009        -1.28892
C         41.58605        35.23981        -0.92640
C         42.70036        37.37848        -1.64377
C         41.38353        38.03676        -1.37503
C         43.07588        40.45824        -1.98970
C         41.16503        39.37274        -1.76288
C         42.93255        41.75717        -1.47943
C         41.63476        42.35259        -1.07093
C         42.80033        44.53199        -0.90461
C         41.58905        43.82661        -0.99974
C         42.78883        45.96094        -0.84619
C         41.53643        46.65308        -0.93026
C         42.76281        48.77052        -0.76109
C         41.52901        48.08053        -0.83930
C         42.74229        50.24164        -0.80854
C         41.47698        50.88773        -0.30687
C         42.70632        53.08000        -0.21943
C         41.48743        52.38065        -0.43471
C         42.66015        54.47431         0.06712
C         41.37224        55.04244         0.18939
C         42.78416        57.44926        -0.46564
C         41.45342        57.10339        -0.16871
C         42.95053        58.45448        -1.43841
C         41.83352        58.98220        -2.09788
C         45.21040        15.98922        -1.51753
C         43.93981        16.65039        -1.41184
C         45.13803        18.81304        -1.33047
C         43.93136        18.09420        -1.41904
C         45.12688        20.25556        -1.25500
C         43.91077        20.95873        -1.29546
C         45.16949        23.08532        -1.62780
C         43.90368        22.39508        -1.34594
C         45.16489        24.63827        -1.49803
C         43.89931        25.29085        -1.12846
C         45.14376        27.41087        -0.78785
C         43.90448        26.69608        -0.90452
C         45.11772        28.81086        -0.72757
C         43.89883        29.53895        -0.84994
C         45.18497        31.69859        -1.06211
C         43.92146        30.96299        -1.00067
C         45.23706        33.04082        -1.39388
C         44.00542        33.81185        -1.62198
C         45.28408        35.99705        -1.55776
C         44.01898        35.28703        -1.47574
C         45.32933        37.37722        -1.61011
C         44.07489        38.14797        -1.83832
C         45.35167        40.25663        -1.21144
C         44.16983        39.62876        -1.72761
C         45.32217        41.69238        -0.94760
C         44.10259        42.42158        -1.03497
C         45.26727        44.53191        -0.59234
C         44.05998        43.83003        -0.81221
C         45.25651        45.96686        -0.55141
C         44.02056        46.66870        -0.69995
C         45.24014        48.82912        -0.52315
C         44.00384        48.10013        -0.68715
C         45.26732        50.24632        -0.43000
C         44.03223        51.00422        -0.63453
C         45.13723        53.08893         0.16382
C         43.96663        52.40743        -0.20099
C         45.09783        54.51757         0.37634
C         43.87310        55.24423         0.22728
C         45.14107        57.32391         0.30914
C         43.91400        56.67239         0.09161
C         46.38114        16.68892        -1.55304
C         47.61863        18.80704        -1.19698
C         46.41163        18.11612        -1.37117
C         47.58233        20.22993        -0.67828
C         46.36459        20.98854        -1.13197
C         47.69887        23.07338        -1.39875
C         46.41288        22.34740        -1.35613
C         47.69964        24.61226        -1.33709
C         46.42194        25.32809        -1.17933
C         47.64240        27.35656        -0.55704
C         46.40281        26.66926        -0.78576
C         47.62902        28.79060        -0.23422
C         46.33027        29.57640        -0.38937
C         47.61757        31.69769        -0.49789
C         46.41787        31.01281        -0.67883
C         47.59320        33.23271        -0.59717
C         46.59898        33.66599        -1.69899
C         47.88416        35.90744        -1.80110
C         46.51150        35.21699        -2.01551
C         48.03888        37.50706        -1.82403
C         46.59859        38.20607        -1.88547
C         47.63689        40.14601        -0.29949
C         46.53372        39.52156        -1.11782
C         47.80180        41.64030        -0.67647
C         46.50081        42.40081        -0.64481
C         47.70757        44.51402        -0.09904
C         46.49312        43.80040        -0.47389
C         47.70683        45.96737        -0.09225
C         46.48230        46.68848        -0.40379
C         47.71780        48.85781        -0.38352
C         46.45842        48.10017        -0.40322
C         47.70444        50.29338        -0.05291
C         46.44817        50.96994        -0.07068
C         47.58259        53.05931         0.58730
C         46.39113        52.37431         0.20426
C         47.53011        54.45859         0.88426
C         46.30750        55.21110         0.65488
C         46.29167        56.62171         0.65326
C         50.05721        18.76801        -0.89617
C         48.89252        18.14475        -1.22423
C         50.10809        20.20523        -0.57189
C         48.88486        20.98594        -0.82576
C         50.17338        23.10029        -0.90546
C         48.92915        22.35183        -0.99353
C         50.15789        24.54781        -0.86761
C         48.94531        25.28295        -0.92522
C         50.09724        27.43023        -0.43234
C         48.88367        26.68900        -0.65001
C         50.08484        28.81606        -0.24775
C         48.87176        29.56281        -0.28089
C         50.10429        31.68744        -0.09982
C         48.84769        30.97710        -0.25426
C         50.09021        33.16252        -0.10726
C         48.96446        33.84511        -0.73367
C         50.42636        36.00426        -1.13655
C         49.12659        35.17779        -1.29276
C         50.24753        37.40009        -0.58014
C         49.02387        38.07596        -0.76212
C         50.14429        40.12988         0.02954
C         48.96899        39.43432        -0.35973
C         50.10156        41.56214         0.45484
C         48.84649        42.32464         0.18013
C         49.99730        44.43933         0.88463
C         48.85639        43.79944         0.21379
C         49.96261        45.96294         0.95393
C         48.87360        46.65624         0.24385
C         50.22013        48.84282         0.27272
C         49.00407        48.08261        -0.09011
C         50.17446        50.26862         0.31657
C         48.89883        50.96251         0.29534
C         49.96297        53.02439         1.21961
C         48.82535        52.35029         0.68542
C         49.85264        54.37784         1.60108
C         48.67704        55.08648         1.40502
C         52.70020        20.28254        -0.95465
C         51.44066        20.95956        -0.61892
C         52.64539        23.12705        -0.79268
C         51.39619        22.42272        -0.80492
C         52.62828        24.55507        -0.62167
C         51.39578        25.23215        -0.66203
C         52.66056        27.39940        -0.26765
C         51.37867        26.70467        -0.59815
C         52.59307        28.79649         0.25469
C         51.30636        29.54350         0.15392
C         52.58889        31.70575         0.05008
C         51.31596        31.01900         0.05930
C         52.67046        33.09242         0.03588
C         51.43240        33.88832        -0.00944
C         52.73426        35.96580        -0.17424
C         51.53688        35.27905        -0.43122
C         52.70944        37.39819        -0.10341
C         51.43689        38.08875        -0.20915
C         52.66735        40.28808        -0.01722
C         51.38854        39.48428         0.02562
C         52.58801        41.66498         0.59529
C         51.35784        42.33106         0.67706
C         52.50205        44.45885         1.16796
C         51.30260        43.72384         0.96126
C         52.50326        45.89659         1.24924
C         51.22658        46.72773         1.32446
C         52.65949        48.53303         0.45593
C         51.35964        48.04714         0.58475
C         52.65143        50.56867         0.50257
C         51.33703        51.05169         0.68219
C         52.38827        52.89725         1.89127
C         51.23399        52.33368         1.29385
C         53.83967        20.99976        -1.12968
C         55.11685        23.13342        -0.78711
C         53.86908        22.42875        -0.92963
C         55.07685        24.49116        -0.32643
C         53.88039        25.21960        -0.31808
C         55.06716        27.31296         0.29273
C         53.90784        26.63681        -0.02546
C         55.07035        28.78267         0.64612
C         53.85742        29.51200         0.17494
C         55.18698        31.65555         0.03070
C         53.84300        30.92981        -0.07314
C         55.13435        33.09415         0.24736
C         53.93839        33.79464         0.09398
C         55.13415        35.94981         0.40423
C         53.93788        35.24035         0.12850
C         55.11164        37.37532         0.50553
C         53.89297        38.10032         0.26998
C         55.06340        40.21531         0.74988
C         53.88843        39.51574         0.41260
C         55.04673        41.64827         0.93076
C         53.79549        42.35278         0.89147
C         54.98801        44.42691         1.43876
C         53.76230        43.75086         1.17594
C         54.94746        45.86664         1.73253
C         53.71246        46.59452         1.39603
C         55.00730        48.77970         1.25917
C         53.79898        47.98909         1.11169
C         55.00573        50.21666         1.23279
C         53.77690        51.02064         1.21320
C         53.61057        52.22997         1.92421
C         57.57969        23.22353        -0.78540
C         56.37553        22.54135        -1.02047
C         57.61144        24.47573        -0.16767
C         56.32577        25.09450         0.16737
C         57.60168        27.33300         0.50929
C         56.32049        26.59390         0.52546
C         57.60885        28.73967         0.56995
C         56.38516        29.49973         0.44508
C         57.61333        31.61551         0.72399
C         56.40975        30.88128         0.38208
C         57.56887        32.98976         0.89333
C         56.46006        33.79529         0.24263
C         57.52148        35.94260         0.93177
C         56.36597        35.24939         0.61929
C         57.53253        37.36949         1.00499
C         56.30909        38.08395         0.80295
C         57.51274        40.20905         1.15396
C         56.29588        39.50414         0.91681
C         57.50151        41.62935         1.25548
C         56.25235        42.34046         1.19632
C         57.47889        44.49109         1.52766
C         56.23034        43.75966         1.41148
C         57.50228        45.89745         1.59756
C         56.24720        46.64801         1.76634
C         57.46394        48.79985         1.52100
C         56.23758        48.10372         1.49954
C         57.43880        50.21045         1.42621
C         56.23590        50.89340         1.34441
C         60.06914        24.50362         0.12280
C         58.83585        25.18159         0.15854
C         60.06521        27.27789         0.64020
C         58.82522        26.58979         0.45996
C         60.06500        28.71430         0.86173
C         58.84876        29.44611         0.75761
C         60.03700        31.52755         1.28158
C         58.84278        30.86136         0.95069
C         60.05044        32.98123         1.71739
C         58.71922        33.71250         1.48119
C         60.02078        35.92683         1.29901
C         58.73327        35.21035         1.36851
C         60.00441        37.33193         1.28399
C         58.75421        38.06084         1.21600
C         59.97645        40.19923         1.38428
C         58.75177        39.48846         1.25713
C         59.96572        41.62949         1.45059
C         58.72829        42.34184         1.41341
C         59.95411        44.48080         1.57237
C         58.72584        43.77405         1.49646
C         59.96772        45.92345         1.61348
C         58.72846        46.63019         1.59604
C         59.94710        48.74105         1.71296
C         58.72610        48.06424         1.62786
C         61.26854        25.17754         0.35042
C         61.27165        26.54863         0.58929
C         61.24721        29.41757         1.18106
C         61.22475        30.78600         1.40845
C         61.21361        33.77853         1.16141
C         61.20965        35.13638         1.10734
C         61.21816        38.09113         1.35963
C         61.20123        39.45690         1.42293
C         61.17697        42.37085         1.55368
C         61.17096        43.74186         1.60254
C         61.17618        46.65720         1.68646
C         61.16066        48.04111         1.74576
O         40.99297        22.56564         0.55611
O         39.92702        32.45571        -2.17408
O         41.99833        39.95247        -2.71410
O         27.31294        27.30164        -0.02184
O         34.31490        23.01041        -1.52080
O         33.87939        26.85260         2.33831
O         50.53962        33.75841         1.18541
O         52.22074        27.32956        -1.66655
O         52.86941        49.57264        -0.46403
O         43.21351        33.37481        -2.78983
O         36.05043        32.15885         2.01176
O         55.53949        46.27233         3.01308
O         26.38443        39.73335        -0.84407
O         34.55686        34.76742         2.50495
O         48.73805        35.22160        -2.72345
O         27.82563        41.18317         2.08463
O         41.31131        41.70163         0.28406
O         48.61297        48.43023        -1.46815
O         49.53916        45.14946         2.09831
O         27.92055        32.43534         3.48406
O         47.86165        23.87469        -2.60881
O         23.59616        35.30977        -0.17231
O         45.14497        23.95424        -2.79411
O         37.26911        52.78463        -2.53442
O         50.83289        20.52468         0.66528
O         29.27177        35.04348         3.23630
O         43.37679        50.81384        -1.97389
O         56.24361        25.56419         1.55937
O         46.81923        29.17485         0.93874
O         51.79573        29.01596         1.48674
O         31.38712        39.98936         2.30914
O         58.39732        34.53408         2.67071
O         48.71954        37.79407        -2.99488
O         43.27696        37.65414        -2.94917
O         31.49562        31.06055         3.26128
O         49.09398        41.77006         1.52553
O         54.64743        31.28537        -1.29648
O         33.05358        23.47245         1.83527
O         41.23935        56.23573         0.91504
O         40.05011        19.57653        -2.72205
O         50.92839        36.27621        -2.47796
H         50.21105        36.83806        -2.91097
O         32.39232        44.19946        -2.17243
H         31.41971        44.01948        -2.18675
O         52.87510        40.55568        -1.45963
H         52.82045        39.69597        -1.93058
O         37.40900        20.29817        -2.81201
H         38.24152        19.95346        -3.21935
O         51.08252        47.11369         2.72600
H         50.67245        46.34217         3.18259
O         35.07049        41.31878        -2.22496
H         35.01665        42.19252        -2.67111
O         46.43032        38.58659        -3.27219
H         47.35665        38.51057        -3.65895
O         47.41834        20.10047         0.78343
H         48.25462        19.73053         1.14112
O         47.07738        33.75727         0.66299
H         47.67378        33.46495         1.38587
O         25.37348        28.78950         3.49212
H         26.20311        28.43777         3.87770
O         30.47197        42.35687         2.43500
H         30.97007        41.69325         2.97064
O         48.29241        41.66858        -2.04122
H         48.12311        42.55401        -2.42424
O         37.73992        44.33699        -2.91902
H         38.46840        44.87782        -3.29377
O         47.06862        32.99908        -2.87951
H         46.83600        33.57523        -3.64813
O         30.71251        28.49899         3.38586
H         31.00636        29.35874         3.78200
O         28.09001        24.19527         2.69992
H         27.38651        23.55438         2.94081
O         30.16614        44.88830         1.61980
H         30.25421        44.05145         2.14507
O         35.21263        49.04264        -2.77609
H         35.16516        48.17308        -3.22573
O         27.87430        45.66304        -2.30831
H         28.62305        45.05348        -2.51916
O         54.92317        28.80293         2.12774
H         54.01623        28.49162         2.34531
O         31.33029        20.58439         1.81310
H         31.93531        21.18838         2.29729
O         40.87045        36.05443         1.16296
H         40.16951        36.52826         1.65969
O         60.29342        32.92240         3.15124
H         59.77107        33.66287         3.54658
O         41.16203        16.35318        -2.95169
H         41.84605        16.84497        -3.45465
O         37.32806        27.31285        -2.10445
H         36.47405        27.77996        -2.22818
O         24.35936        29.48935         0.05082
H         23.57153        29.95163        -0.30466
O         47.14424        40.05284         1.06352
H         47.79006        40.53723         1.63884
O         29.58492        43.53105        -1.76231
H         29.01236        42.81351        -2.11136
O         36.95269        25.08351         1.75398
H         36.21504        25.48570         2.26330
O         56.84660        33.83614        -1.19248
H         56.50498        33.02068        -1.62149
O         22.81797        44.73005         1.73003
H         22.86738        43.84253         2.14494
O         23.86647        48.58760         0.97720
H         23.10534        48.05304         1.29269
O         35.88950        31.23697        -1.51486
H         36.57168        31.00841        -2.18232
O         30.40665        23.55927        -1.42835
H         30.35149        22.71562        -1.92767
O         31.26703        52.57387         0.73795
H         30.42635        52.10262         0.92406
O         39.10407        42.64289         0.95417
H         40.04256        42.51228         1.24618
O         35.43331        49.95366         0.76271
H         35.21106        50.78929         1.22391
O         31.07603        33.39277         3.79746
H         30.73103        34.27130         4.08242
O         41.49106        50.60426         1.14435
H         40.65182        50.94197         1.52303
O         46.31405        35.27646        -3.45944
H         46.44284        36.20797        -3.74834
H         22.92395        23.50773         1.37943
H         20.86001        24.73176         1.93977
H         20.85930        27.16739         2.26620
H         20.85927        29.11339         2.14396
H         20.91587        31.52954         1.98612
H         20.99416        33.43370         2.22398
H         20.96326        35.83240         1.84857
H         20.90960        37.62879         1.05653
H         20.89845        40.04802         0.68367
H         20.92906        41.75874        -0.29901
H         20.81438        44.17406        -0.37060
H         20.83980        46.05736        -0.70372
H         23.00930        49.64617        -1.65862
H         20.95851        48.27592        -1.80133
H         24.54301        22.53032         1.12200
H         24.56163        50.76043        -0.93532
H         26.56583        21.34576         0.49745
H         26.67528        51.94643        -1.30913
H         30.20435        19.31707        -0.66298
H         28.15458        20.62769        -0.67337
H         30.39230        54.05550        -1.73596
H         28.34917        52.75260        -2.03912
H         31.90958        18.19506         0.05336
H         31.95722        55.09069        -0.89822
H         34.01254        17.02193        -0.37460
H         34.06809        56.30843        -1.07536
H         37.79286        14.99017        -0.08590
H         35.68463        16.19361        -0.00905
H         37.85189        58.45726        -1.21071
H         35.72012        57.26051        -1.30478
H         39.49520        14.14706         0.09902
H         39.71556        58.82275        -2.52552
H         43.68151        13.99086        -0.81827
H         41.59649        12.89002        -0.12784
H         43.95804        58.79495        -1.71584
H         41.98377        59.76124        -2.85807
H         45.24152        14.89521        -1.61012
H         45.18852        58.41856         0.22093
H         47.32106        16.13260        -1.66191
H         47.21453        57.18577         0.84310
H         50.98902        18.18768        -0.86239
H         48.93765        17.08054        -1.49413
H         50.71990        54.90190         2.02328
H         48.64751        56.14791         1.68442
H         52.72872        19.18577        -1.00763
H         52.31270        53.86359         2.40728
H         54.77638        20.46884        -1.34791
H         54.44816        52.65754         2.49266
H         58.51800        22.72339        -1.06294
H         56.43276        21.52555        -1.43393
H         58.37111        50.78891         1.44601
H         56.24396        51.99206         1.31722
H         60.09529        23.42406        -0.07678
H         59.97705        49.83733         1.75540
H         62.21798        24.62536         0.32342
H         62.23423        27.05719         0.72935
H         62.19844        28.88197         1.29738
H         62.15017        31.29270         1.71379
H         62.15760        33.24643         0.97175
H         62.14162        35.65400         0.83494
H         62.18101        37.56525         1.40905
H         62.15885        39.98606         1.50911
H         62.14251        41.85084         1.58645
H         62.13228        44.26648         1.67104
H         62.14393        46.14025         1.70403
H         62.10570        48.59759         1.81152
