         300
 CSIRO Nanostructure Databank - Neutral Graphene Oxide Data Set
C         30.55955        31.51469        -0.72481
C         30.54051        32.74365        -0.85018
C         31.42127        35.57051        -2.01650
C         31.59897        36.65209        -2.69901
C         31.69025        41.04542        -2.66397
C         31.34267        42.17105        -2.26333
C         32.68236        28.74956         0.75682
C         31.69555        29.26324         0.21901
C         32.63665        31.52222         0.59594
C         31.39076        30.68917         0.16717
C         32.80446        32.91211        -0.04815
C         31.45387        33.73294        -0.14346
C         32.68865        36.04511        -0.06155
C         31.74431        35.03295        -0.82621
C         33.08070        37.29518        -0.86959
C         32.43917        37.62915        -2.05938
C         33.14124        40.45195        -0.90099
C         32.49610        40.01411        -2.03899
C         32.93666        41.88052        -0.44620
C         32.32182        42.96498        -1.44375
C         32.74438        44.51295         0.33114
C         31.98280        44.12236        -0.55655
C         35.36150        27.12746         1.26553
C         35.20581        28.58387         1.67630
C         33.88725        29.30362         1.37685
C         35.24163        31.58507         1.15959
C         33.87466        30.84030         1.14299
C         35.24241        33.02046         0.60568
C         33.92867        33.73532         0.57078
C         35.22980        35.92497         0.09328
C         33.92283        35.21966         0.42343
C         35.12142        37.36719         0.61437
C         34.25744        38.17572        -0.42903
C         35.15954        40.31169         0.53756
C         33.87163        39.56241         0.13943
C         35.13723        41.65835         0.75561
C         33.87158        42.43705         0.61613
C         35.14020        44.61658         1.11933
C         33.82259        43.90074         1.18271
C         35.36138        45.94749         1.30247
C         37.55818        27.06116         0.16807
C         36.26463        26.52343         0.67892
C         37.67081        28.39335         0.93969
C         36.30233        29.18187         0.71495
C         37.68415        31.46693         0.37678
C         36.39486        30.72820         0.60690
C         37.69552        32.98089         0.05221
C         36.42074        33.70810         0.43032
C         37.67772        35.87550         0.37462
C         36.49742        35.17559         0.39720
C         37.79450        37.31030         0.89552
C         36.45632        38.08899         0.88278
C         37.76746        40.33683         0.64169
C         36.45016        39.58572         0.76989
C         37.72766        41.78458         0.27082
C         36.38404        42.46074         0.50247
C         37.72355        44.68999         0.62375
C         36.43528        43.90258         0.90755
C         37.63588        46.18387         0.60462
C         36.44730        46.61847         1.11506
C         40.19271        24.38550        -0.65956
C         39.13392        25.01117        -0.56303
C         40.17752        27.18583        -0.23168
C         38.81183        26.41695        -0.32253
C         40.22883        28.57646         0.35084
C         38.94725        29.25070         0.79191
C         40.29804        31.55668         0.77781
C         38.95941        30.76018         0.73236
C         40.22469        32.96180         0.18139
C         38.95571        33.73768         0.53752
C         40.21998        35.92791         0.21259
C         38.94251        35.15620        -0.08859
C         40.15803        37.37505        -0.19442
C         38.92359        38.11061         0.20101
C         40.28451        40.30758        -0.02969
C         39.05077        39.59109         0.42910
C         40.34293        41.83939         0.24252
C         38.98466        42.54656         0.21261
C         40.14296        44.82920        -0.30205
C         38.81686        44.01167        -0.22669
C         40.17281        46.31040         0.05843
C         38.82779        47.00374         0.34138
C         40.08292        48.67950         1.59415
C         39.04150        48.23617         1.10573
C         42.85280        24.37980        -0.47525
C         41.54198        24.93872        -0.81740
C         42.72076        27.08031         0.21713
C         41.49462        26.43143        -0.41811
C         42.76920        28.54630         0.32388
C         41.53468        29.28746         0.76719
C         42.80546        31.50293         0.46611
C         41.49475        30.74644         0.19370
C         42.81882        32.99304         0.32639
C         41.51864        33.70054         0.03759
C         42.77084        35.92631        -0.01815
C         41.52313        35.19286         0.16306
C         42.71178        37.40690        -0.03966
C         41.44578        38.08005        -0.61223
C         42.64806        40.31168        -0.81744
C         41.39171        39.61106        -0.42422
C         42.66015        41.82847        -0.90239
C         41.29725        42.52667        -0.77360
C         42.75250        44.82199        -0.37113
C         41.41795        44.07756        -0.54979
C         42.70640        45.98130         0.67375
C         41.48093        46.93928         0.48930
C         42.56867        48.30146         2.32482
C         41.45284        48.26232         1.35391
C         43.90578        25.01597        -0.29414
C         45.29654        27.13578         0.60892
C         44.02807        26.32978         0.36246
C         45.31711        28.55318        -0.07552
C         43.96082        29.28834        -0.22593
C         45.27781        31.50412        -0.27619
C         44.10855        30.70142         0.40661
C         45.26567        33.02462        -0.04183
C         44.09839        33.71678         0.07076
C         45.32986        35.97646        -0.11424
C         44.04699        35.21214         0.12412
C         45.28686        37.42873        -0.56745
C         43.99806        38.16159        -0.19819
C         45.19713        40.36672        -0.32436
C         43.96062        39.58719        -0.69463
C         45.34401        41.84551        -0.74484
C         43.97420        42.56835        -0.89402
C         45.34384        44.68120        -0.43144
C         44.02004        44.06435        -0.70995
C         45.19427        46.80009         0.31254
C         44.00040        46.81474         0.97873
C         43.65103        47.80166         1.94088
C         47.68750        27.18123         0.14985
C         46.63072        26.55394         0.20947
C         47.95507        28.63404         0.39429
C         46.61257        29.32923        -0.01230
C         47.84606        31.52130        -0.55086
C         46.62392        30.86131         0.17220
C         47.84774        33.01531        -0.17716
C         46.54360        33.73320        -0.39137
C         47.89260        36.05080        -0.63898
C         46.57432        35.22330        -0.51850
C         47.81827        37.42445         0.05072
C         46.50599        38.13820         0.02357
C         47.76226        40.39331        -0.26221
C         46.45479        39.63793         0.04761
C         47.70123        41.82162         0.32258
C         46.40140        42.56383         0.14414
C         47.64758        44.71981         0.83081
C         46.43239        44.05759         0.09858
C         47.47370        46.19334         0.72560
C         46.52790        46.98528         0.83226
C         50.40934        28.90636        -0.47295
C         49.13304        29.30203        -0.27759
C         50.43731        31.57781        -0.23076
C         49.14383        30.82128        -0.15079
C         50.43023        33.09358        -0.52388
C         49.12289        33.79931        -0.15149
C         50.21875        36.02661         0.48324
C         49.13576        35.27575        -0.27284
C         50.34565        37.47691        -0.02648
C         49.06930        38.25012         0.04338
C         50.31122        40.37768        -0.33290
C         49.04319        39.61481         0.04005
C         50.27755        41.88903         0.01413
C         48.99094        42.59325         0.37797
C         50.19403        44.61398         0.13836
C         48.92506        44.08407         0.37560
C         51.57147        29.46585        -0.66380
C         52.81454        31.76310        -0.47879
C         51.74233        30.81286        -0.51131
C         52.82546        32.96657        -0.16051
C         51.63503        33.78270         0.17238
C         52.68330        36.13424         0.65200
C         51.55174        35.20277         0.60748
C         52.69517        37.36305         0.55260
C         51.65253        38.25195         0.01325
C         52.68378        40.64275        -0.07512
C         51.56821        39.72281         0.34964
C         52.66509        41.87191        -0.20851
C         51.52320        42.73000        -0.65359
C         51.32322        44.12315        -0.12783
O         46.79877        42.02760         1.44779
O         31.46564        31.32888         1.44380
O         47.00691        37.52356         1.24781
O         39.41320        47.05784        -0.96053
O         49.83113        31.25071         1.06030
O         51.44680        34.12513         1.55969
O         45.30511        46.02460        -0.84471
O         43.11504        26.40032         1.49910
O         33.54286        30.21850         2.43480
O         41.79890        48.25636        -0.03698
O         46.41815        34.38882        -1.70852
O         43.32949        44.91928        -1.68206
O         49.99003        42.13386         1.39032
O         37.64542        33.03896        -1.36051
O         44.91441        35.75514         1.23641
O         47.87303        40.49522        -1.66781
O         40.78607        33.18918        -1.13902
O         39.10973        37.69869        -1.17602
O         48.46717        33.34270         1.09745
O         33.69090        34.61540         1.72233
O         38.65474        40.04906         1.76873
O         32.55687        41.87172         0.96570
O         46.12113        28.77869        -1.26324
O         43.36035        39.75423        -1.98492
O         51.13502        37.74483        -1.22967
O         36.81517        42.12409        -0.85158
O         37.47347        44.11162         1.93644
O         36.89360        30.92468        -0.73603
O         41.65112        25.97822        -1.80136
O         36.35028        38.90921         2.08596
O         43.41047        38.01798         1.10910
O         37.86927        27.06494        -1.22114
O         40.70915        44.72211        -1.64649
O         40.84986        35.66710         1.47897
O         42.82594        32.35341         1.64828
O         38.94212        30.04207         2.01277
O         32.61159        38.82370        -2.71221
O         43.31572        42.23346        -2.14890
O         45.53741        40.11340         1.06888
O         40.16615        28.35559        -1.09259
O         47.77158        31.38797        -1.96831
H         46.83740        31.56601        -2.25171
O         40.65061        42.32192        -2.03783
H         41.28699        42.58820        -2.73979
O         35.52487        28.77140         3.03051
H         34.83065        29.33401         3.44594
O         35.07087        38.49548        -1.56381
H         35.32685        37.65453        -2.01268
O         47.96769        36.40419        -2.05804
H         47.93694        35.56606        -2.57446
O         30.97814        33.94668         1.16202
H         30.17640        34.50810         1.13455
O         45.14810        31.42695        -1.70897
H         44.94386        30.48776        -1.97455
O         50.57233        33.29285        -1.93823
H         51.42936        32.91270        -2.22943
O         34.43634        37.25067         1.85611
H         34.55321        38.09319         2.35240
O         50.44442        40.27015        -1.75768
H         49.49917        40.27986        -2.11084
O         33.38306        43.35394        -2.27783
H         33.07321        44.02627        -2.91874
O         49.70517        36.16713         1.82632
H         49.66476        35.27163         2.23287
O         33.27450        32.69721        -1.39204
H         32.58128        32.22499        -1.90402
O         38.91890        35.14229        -1.51701
H         38.39637        34.33105        -1.81404
O         31.95567        36.46341         1.08062
H         32.28655        35.95196         1.85729
O         40.54161        31.83807         2.15842
H         40.42560        30.99921         2.66570
O         35.77010        28.80695        -0.57039
H         36.32586        29.21262        -1.27521
O         35.23542        35.93378        -1.37337
H         35.62247        35.08514        -1.68887
O         46.77287        31.17417         1.55955
H         47.44230        30.56712         1.95959
O         45.37015        27.42533         1.99324
H         44.88412        26.73998         2.50022
O         33.01482        39.33356         1.25262
H         32.61722        40.19970         1.51787
O         44.41261        30.37969         1.77439
H         44.44747        31.22112         2.28446
O         41.35349        30.61486        -1.23060
H         41.11869        31.50124        -1.61116
O         47.53915        44.41827         2.23021
H         47.36131        43.44611         2.33247
O         41.59369        29.34022         2.20976
H         42.50663        29.61880         2.46045
O         45.92035        41.91490        -2.05350
H         45.27721        41.54062        -2.69599
O         33.44391        43.80459         2.54268
H         32.60135        43.30275         2.58568
O         38.19267        37.14022         2.26760
H         37.84746        37.91460         2.77308
O         51.38891        39.82176         1.75279
H         52.15983        39.42365         2.20797
O         42.43021        45.23595         1.88301
H         42.52107        45.84220         2.65223
O         40.92849        42.00846         1.55387
H         40.34819        41.55055         2.20326
O         38.28711        44.00888        -1.56248
H         39.03204        43.76520        -2.16443
O         38.84739        33.85736         1.95160
H         39.60890        34.38714         2.28917
O         41.57791        37.82043        -2.02448
H         40.70079        37.96991        -2.44346
O         51.38947        42.74632        -2.03372
H         51.24112        41.80905        -2.33245
O         35.59655        31.72325         2.55746
H         34.93480        32.29997         2.99537
O         48.13446        28.83609         1.79957
H         49.02166        28.51475         2.06525
O         37.77687        27.90848         2.28721
H         37.80778        28.67271         2.90423
O         45.37247        37.48568        -1.99792
H         46.27277        37.18045        -2.28213
O         43.68198        29.32668        -1.64949
H         42.76051        29.68732        -1.77722
