         618
 CSIRO Nanostructure Databank - Neutral Graphene Oxide Data Set
C         23.58586        69.48533        -2.86445
C         23.67827        70.81346        -3.23238
C         22.64588        71.39024        -4.17532
C         23.83645        73.58590        -3.97238
C         22.77877        72.86745        -4.39760
C         25.61831        65.47339        -0.86088
C         25.63521        66.86610        -1.10183
C         24.56495        67.49226        -1.78027
C         25.69594        69.66263        -1.59829
C         24.60031        68.86492        -2.07381
C         25.71663        71.05141        -1.88331
C         24.75454        71.61534        -2.73234
C         26.01622        73.72114        -2.82846
C         24.89154        73.00263        -3.15817
C         27.84396        61.29613         0.57418
C         27.85155        62.73185         0.46945
C         26.71669        63.42444        -0.03462
C         27.86033        65.61351         0.11559
C         26.71449        64.82380        -0.25702
C         27.91613        66.98895        -0.12117
C         26.78194        67.65073        -0.70970
C         27.95804        69.83871        -0.56079
C         26.79238        69.04212        -0.92601
C         27.93571        71.21451        -0.68889
C         26.69318        71.94229        -1.14927
C         28.12649        73.93194        -1.61680
C         27.01380        73.21154        -1.91434
C         30.13461        56.86034         1.03418
C         29.87426        58.18555         0.67924
C         28.82605        59.09004         0.94206
C         30.21736        61.25792         1.26948
C         28.97011        60.52663         0.83909
C         30.19653        62.81786         1.34831
C         28.99722        63.47203         0.83079
C         30.29882        65.69947         0.93885
C         28.97517        64.93189         0.77863
C         30.34990        67.08540         0.44531
C         29.14717        67.73837         0.08092
C         30.40674        69.82708        -0.10061
C         29.17078        69.13775        -0.16057
C         30.40569        71.30095        -0.06463
C         29.09042        72.02788        -0.26413
C         30.44817        74.10486        -0.75046
C         29.07779        73.53536        -0.51744
C         32.87560        52.75458         0.81034
C         32.78053        54.11459         1.44073
C         31.54844        54.87796         1.02604
C         32.72713        57.00797         1.35600
C         31.46059        56.24443         1.02696
C         32.82357        58.49979         1.35511
C         31.74631        59.35439         0.83029
C         32.76743        61.32826         1.76771
C         31.55457        60.61823         1.28870
C         32.73245        62.83343         1.66086
C         31.48243        63.56545         1.34119
C         32.80001        65.67039         1.03445
C         31.54900        64.91892         1.06214
C         32.82748        67.06113         0.74723
C         31.59765        67.76146         0.39181
C         32.93874        69.82639        -0.21770
C         31.62237        69.13800         0.07020
C         32.91388        71.34420        -0.12787
C         31.68567        72.01675        -0.22944
C         32.88688        74.07585        -0.78073
C         31.64792        73.41825        -0.54314
C         35.23683        48.71125        -0.49510
C         35.32177        49.99377         0.19051
C         34.15537        50.75411         0.19600
C         35.32656        52.74319         1.07921
C         34.08036        52.08865         0.71247
C         35.29864        54.18041         1.28828
C         34.06728        54.89410         1.28672
C         35.27033        57.03316         1.26466
C         34.04398        56.29516         1.31204
C         35.31182        58.49446         1.34493
C         34.10752        59.21507         1.44545
C         35.29285        61.32136         1.61213
C         34.07627        60.61536         1.58630
C         35.29904        62.77744         1.37135
C         34.00502        63.51986         1.28752
C         35.25783        65.65959         1.31067
C         34.02363        64.99117         1.26443
C         35.27801        67.08386         1.13585
C         34.06520        67.77074         0.79867
C         35.31841        69.86706         0.49416
C         34.12385        69.17235         0.45320
C         35.43705        71.26961        -0.10758
C         34.13627        72.05518        -0.19768
C         35.29535        74.21066        -0.97690
C         34.11652        73.43876        -0.59632
C         37.79552        44.48496        -1.07617
C         37.69646        45.85090        -0.86885
C         36.39542        46.45322        -0.96003
C         37.97237        48.57073         0.49630
C         36.10132        47.65302        -0.26894
C         37.83286        49.98057         0.65895
C         36.55964        50.61647         0.68064
C         37.78642        52.68995         1.41285
C         36.52016        52.01453         1.03598
C         37.78126        54.20920         1.54497
C         36.50619        54.91631         1.34517
C         37.77502        57.03595         1.08653
C         36.49093        56.31979         1.25805
C         37.79227        58.54376         1.14672
C         36.52089        59.22601         1.39595
C         37.77992        61.37084         1.59131
C         36.52770        60.63269         1.55102
C         37.78206        62.79487         1.69346
C         36.54100        63.53893         1.58426
C         37.70790        65.70080         1.82558
C         36.48592        64.92750         1.55509
C         37.74962        67.13321         1.50147
C         36.50639        67.79738         1.20782
C         37.73246        69.89834         1.06370
C         36.52445        69.19888         0.93053
C         37.72420        71.31954         0.99999
C         36.55529        71.99649         0.61310
C         37.79779        74.53698        -0.74025
C         36.51202        74.08640        -0.34823
C         40.27155        40.24324        -1.83950
C         40.28546        41.74061        -2.01007
C         39.02560        42.43516        -1.55832
C         40.29840        44.52677        -1.18962
C         39.03121        43.77201        -1.23418
C         40.27824        45.94835        -0.95406
C         38.96720        46.70891        -0.93208
C         40.30349        48.69725        -0.10664
C         39.08002        47.94939        -0.05614
C         40.29628        50.06277         0.34859
C         39.07679        50.71584         0.67820
C         40.29152        52.80110         1.12133
C         39.07603        52.07055         1.06778
C         40.28737        54.23792         1.35599
C         39.05724        54.94035         1.40719
C         40.25591        57.08412         1.41813
C         39.04941        56.34121         1.32761
C         40.26037        58.52439         1.47381
C         39.04851        59.24817         1.43043
C         40.26492        61.36968         1.63074
C         39.02177        60.66333         1.57500
C         40.25688        62.79328         1.66928
C         39.01952        63.48364         1.75017
C         40.27006        65.68171         1.62562
C         39.03525        64.94334         1.92463
C         40.23353        67.08771         1.49789
C         38.98099        67.79595         1.50554
C         40.22696        69.97470         1.04527
C         38.99310        69.29494         1.60352
C         40.20782        71.37290         0.77103
C         38.95673        72.04299         0.99731
C         40.27399        74.18915        -0.61219
C         38.98915        74.07326        -0.12432
C         42.66898        35.96931        -1.53624
C         42.68441        37.35095        -1.67997
C         41.49083        38.11235        -1.72563
C         42.72889        40.28838        -1.83830
C         41.46261        39.53648        -1.77820
C         42.76434        41.64251        -1.73667
C         41.50120        42.34805        -1.29378
C         42.73679        44.64254        -1.69381
C         41.48714        43.85685        -1.39574
C         42.76611        46.00121        -1.02022
C         41.48587        46.66649        -0.82333
C         42.78377        48.85071        -0.57668
C         41.50012        48.05742        -0.47132
C         42.77229        50.13695         0.19433
C         41.52877        50.78234         0.45037
C         42.78297        52.92459         0.67235
C         41.50244        52.15042         0.82824
C         42.76681        54.27232         1.33481
C         41.50046        54.95665         1.43219
C         42.69465        57.08952         1.78269
C         41.48394        56.38014         1.57311
C         42.72055        58.49554         1.75506
C         41.49963        59.22256         1.61617
C         42.73688        61.36217         1.64859
C         41.50268        60.65410         1.63806
C         42.72617        62.79437         1.57284
C         41.49811        63.51512         1.60400
C         42.70033        65.65488         1.27773
C         41.48642        64.94955         1.50646
C         42.67568        67.09641         1.11917
C         41.45340        67.80873         1.22895
C         42.64148        69.94806         0.73487
C         41.43145        69.23611         0.98928
C         42.62338        71.33893         0.41100
C         41.41508        72.06584         0.35892
C         42.64312        74.11342        -0.30186
C         41.43926        73.45913        -0.13356
C         45.18752        33.11755        -1.26581
C         43.98489        33.77467        -1.41136
C         45.22740        35.97724        -1.08492
C         43.88307        35.21125        -1.19713
C         45.26374        37.39240        -1.49767
C         43.98488        38.05169        -1.86614
C         45.26041        40.22334        -1.51303
C         43.99588        39.54182        -2.01447
C         45.30098        41.70271        -1.75037
C         44.01790        42.42261        -2.09478
C         45.27743        44.48589        -1.20536
C         43.97690        43.79973        -1.45369
C         45.25838        45.96252        -1.02873
C         43.96446        46.64206        -0.75261
C         45.19658        48.63359         0.10238
C         44.02602        48.03119        -0.33872
C         45.23822        49.98293         0.63324
C         43.99231        50.74302         0.63621
C         45.13648        52.72214         1.63524
C         43.97253        52.08236         1.04091
C         45.19703        54.19332         1.72504
C         43.94421        54.90597         1.67578
C         45.20970        57.03951         2.00223
C         43.90620        56.31415         2.21345
C         45.20196        58.48567         1.92930
C         43.98275        59.20629         1.82448
C         45.21223        61.33142         1.59588
C         43.98294        60.63480         1.69365
C         45.21862        62.77380         1.40522
C         43.95514        63.50951         1.39912
C         45.13213        65.59969         0.77323
C         43.90717        64.90456         1.19140
C         45.15109        67.10013         0.70767
C         43.88018        67.83158         0.87949
C         45.12905        69.98526         0.81109
C         43.88692        69.23399         0.77384
C         45.17526        71.34590         0.57371
C         43.92613        71.98190         0.08741
C         45.18400        74.27922        -0.00396
C         43.94202        73.44167        -0.23702
C         46.41632        33.80197        -1.11134
C         47.69244        35.92142        -1.23021
C         46.48121        35.20253        -1.16059
C         47.71218        37.33113        -1.35593
C         46.46639        38.04429        -1.59845
C         47.76051        40.23905        -1.51805
C         46.52256        39.50803        -2.00485
C         47.76798        41.62007        -1.45827
C         46.51755        42.38750        -1.58991
C         47.83048        44.58220        -1.53151
C         46.54597        43.79327        -1.45608
C         47.82071        45.83975        -0.65706
C         46.53318        46.58426        -0.57348
C         47.70803        48.42946         0.75970
C         46.43438        47.82500         0.24481
C         47.72397        49.89964         0.97566
C         46.44075        50.56494         1.06529
C         47.69954        52.71061         1.65301
C         46.45327        51.93179         1.62758
C         47.67403        54.11054         1.92987
C         46.40659        54.84975         1.97278
C         47.64433        57.03420         2.31582
C         46.38601        56.30736         2.05992
C         47.68105        58.49674         2.06059
C         46.44497        59.19256         1.87912
C         47.70142        61.26902         1.55337
C         46.44718        60.60732         1.67612
C         47.74466        62.70274         1.07995
C         46.42786        63.43569         1.27039
C         47.70199        65.66284         0.99364
C         46.42987        64.86335         0.90606
C         47.64279        67.09878         1.49689
C         46.43727        67.84021         0.94833
C         47.65487        70.04099         1.30725
C         46.34934        69.29179         1.25427
C         47.65376        71.44175         0.85202
C         46.42622        72.08543         0.56641
C         47.65866        74.11739        -0.02133
C         46.45533        73.46914         0.16429
C         48.91636        38.05143        -1.25646
C         50.15146        40.15089        -0.97223
C         48.96394        39.47473        -1.26745
C         50.22281        41.57443        -0.97483
C         49.00886        42.34852        -1.23457
C         50.31879        44.45734        -1.13747
C         49.04145        43.73050        -1.22644
C         50.30725        45.96160        -0.83942
C         48.97612        46.44886        -0.29362
C         50.25151        48.47208         0.54125
C         49.01080        47.62387         0.68175
C         50.22822        49.97255         0.67069
C         48.91478        50.59554         1.12484
C         50.14517        52.70690         1.68407
C         48.92651        52.01751         1.45907
C         50.15335        54.10482         1.92690
C         48.91223        54.79595         2.03272
C         50.19446        56.96865         2.19489
C         48.92939        56.24091         2.33406
C         50.17834        58.46068         2.48766
C         48.90355        59.17650         2.02750
C         50.18214        61.31073         1.57323
C         48.89924        60.57374         1.72799
C         50.22162        62.78614         1.73726
C         48.88671        63.49951         1.76002
C         50.23387        65.71165         1.43460
C         48.96406        64.92851         1.24028
C         50.17164        67.17486         1.60693
C         48.95453        67.87689         1.40176
C         50.14755        70.07920         1.41858
C         48.91774        69.27379         1.33368
C         50.14780        71.43924         0.84407
C         48.90353        72.09631         0.61817
C         50.14036        74.11250        -0.04119
C         48.91343        73.45781         0.16874
C         51.42219        42.21049        -0.68022
C         52.76101        44.34588        -0.34438
C         51.57551        43.64573        -0.84186
C         52.73697        45.70829        -0.05390
C         51.49509        46.44873        -0.02925
C         52.71682        48.34089         1.09702
C         51.46085        47.77613         0.45253
C         52.73282        49.84297         1.21686
C         51.42133        50.49855         1.46020
C         52.70440        52.64205         2.20282
C         51.39220        51.92925         1.88194
C         52.66637        54.13970         1.96858
C         51.41632        54.82107         2.02850
C         52.65503        57.00369         2.20298
C         51.37632        56.26035         2.11056
C         52.61220        58.44198         1.86958
C         51.44130        59.10875         1.97145
C         52.72217        61.23348         2.14307
C         51.45345        60.55872         1.66303
C         52.70143        62.75374         2.02596
C         51.40100        63.45889         1.88112
C         52.78224        65.64691         1.72058
C         51.49057        64.92944         1.65322
C         52.77388        67.11018         1.77798
C         51.42985        67.88169         1.83894
C         52.69061        69.99223         1.08559
C         51.47297        69.36550         1.60718
C         52.63968        71.37053         0.69017
C         51.37598        72.08321         0.60242
C         52.60759        74.10416        -0.13809
C         51.37633        73.45008         0.14254
C         53.96703        46.41052         0.16065
C         55.16052        48.51173         0.53859
C         53.98627        47.75706         0.53177
C         55.18104        49.87598         0.96502
C         53.91097        50.54313         1.30044
C         55.12282        52.66406         1.57149
C         53.93429        51.97049         1.59803
C         55.14881        54.11331         1.69299
C         53.90392        54.81099         1.88443
C         55.16590        57.03619         1.66268
C         53.94871        56.27643         2.04579
C         55.13846        58.37741         1.39154
C         53.81537        59.09271         1.21582
C         55.06953        61.22680         1.15900
C         53.92787        60.56662         1.52040
C         55.03251        62.69762         0.98084
C         53.94713        63.48515         1.62623
C         55.13208        65.63286         1.02036
C         53.93316        64.95237         1.39017
C         55.12262        67.07118         0.96098
C         53.95740        67.82556         1.28575
C         55.09369        69.86589         0.55923
C         53.89934        69.22267         0.98189
C         55.07974        71.26982         0.02225
C         53.81714        72.03495         0.28856
C         55.08908        74.04403        -0.42318
C         53.82938        73.41392        -0.07694
C         56.37235        50.55574         1.04905
C         57.59522        52.72692         1.10538
C         56.44285        51.92989         1.62943
C         57.58674        54.10912         1.15938
C         56.36390        54.80465         1.53480
C         57.68799        57.01056         1.25206
C         56.43050        56.27453         1.67263
C         57.59030        58.43689         0.88215
C         56.34223        59.12402         1.03122
C         57.45633        61.24994         0.37510
C         56.27883        60.51116         0.79443
C         57.46091        62.63322         0.26060
C         56.22734        63.41889         0.44764
C         57.38404        65.56361         0.04814
C         56.27935        64.90242         0.56653
C         57.45887        66.99897         0.10643
C         56.31215        67.74723         0.57292
C         57.54317        69.88612         0.22164
C         56.29951        69.16214         0.46211
C         57.57120        71.24652         0.12344
C         56.32739        72.05623         0.41853
C         57.55313        74.01025        -0.64639
C         56.31652        73.41759        -0.25634
C         58.76447        54.83793         0.76350
C         59.95471        56.93857         0.24806
C         58.83273        56.22871         0.73082
C         59.94786        58.35025         0.12448
C         58.73005        59.09374         0.40221
C         59.80995        61.15491        -0.39956
C         58.69351        60.50680         0.12289
C         59.61062        62.53965        -1.00726
C         58.75292        63.37609        -0.03129
C         59.67286        65.51310        -1.14996
C         58.50202        64.78720        -0.54801
C         59.64165        67.04783        -1.19240
C         58.61440        67.66499        -0.28566
C         60.10600        69.75106        -0.02319
C         58.77495        69.07593         0.11079
C         60.15281        71.25337         0.07478
C         58.84699        71.99723         0.04892
C         59.99048        73.91323        -1.05078
C         58.79606        73.36862        -0.52254
C         61.08706        59.05025        -0.31929
C         62.22473        61.16233        -0.89799
C         61.05330        60.44632        -0.56910
C         62.23171        62.58158        -1.05435
C         60.93168        63.27186        -1.47480
C         62.13744        65.45300        -1.20439
C         60.96453        64.77185        -1.16245
C         62.12076        66.88877        -1.59358
C         60.99895        67.71219        -1.09756
C         62.39379        69.76004        -1.12781
C         61.17536        69.03000        -0.76993
C         62.51899        71.10213        -0.90819
C         61.46635        71.97590        -0.24575
C         62.35546        73.85268        -1.66396
C         61.24227        73.25951        -1.05007
C         63.40486        63.29646        -0.99726
C         64.61727        65.43594        -1.73171
C         63.47564        64.80046        -0.96546
C         64.63500        66.78356        -2.06060
C         63.35681        67.55756        -2.05801
C         64.73734        69.67200        -2.11478
C         63.35235        69.08405        -2.11923
C         64.84100        71.04125        -1.96481
C         63.81848        71.82997        -1.18556
C         64.73782        73.85263        -2.29591
C         63.62280        73.21978        -1.76123
C         65.81601        67.46729        -2.45555
C         67.08238        69.56405        -2.81881
C         65.87934        68.88976        -2.51065
C         67.14424        70.97827        -2.83071
C         66.00905        71.72830        -2.39322
C         67.13310        73.81153        -2.97779
C         65.98081        73.15678        -2.51210
C         68.30140        71.69361        -3.25807
C         68.28658        73.07922        -3.31333
O         53.44827        56.68494         3.39218
O         32.72187        62.15882         2.96529
O         46.85039        69.73501         2.55150
O         44.08341        38.70971        -3.19538
O         44.07718        72.44079        -1.31868
O         37.80622        57.83030        -0.15578
O         44.43878        35.68616         0.09688
O         50.82943        70.06420         2.73063
O         48.23717        56.62024         3.61311
O         50.96716        60.91381         0.34149
O         32.50676        57.77284         2.61149
O         51.22226        44.12857        -2.23720
O         34.62844        63.00868         0.04567
O         52.17307        67.54857         3.05644
O         44.47411        43.84169        -0.09972
O         38.32326        65.39900         3.12701
O         46.78615        47.70163         1.66294
O         45.76425        65.02085        -0.41120
O         57.40742        56.74444         2.67308
O         58.62920        64.93776        -1.99757
O         29.97266        61.96286         2.51684
O         51.06724        65.30358         0.25676
O         60.99559        63.22320        -2.87242
O         51.13725        50.81650         2.85064
O         45.64834        52.06385         2.84784
O         36.90035        47.78534         0.88849
O         55.11335        63.01610        -0.45386
O         29.58248        71.75678         1.09334
O         53.64280        63.26557         3.04848
O         37.76346        53.33334         2.72934
O         30.89922        58.78380        -0.10070
O         59.73838        69.14506         1.25763
O         46.05298        46.76331        -1.97669
O         29.38938        65.53208         2.06609
O         36.50759        73.31326         0.85913
O         48.53309        65.27409        -0.13167
O         59.59963        71.80435         1.31627
O         38.86360        73.39809         1.12669
O         46.00321        67.57659        -0.40278
O         62.40539        67.01101        -3.05050
O         47.98773        62.63695        -0.33936
H         48.04727        63.56224        -0.68618
O         62.81785        69.46817        -3.41858
H         62.30801        68.68590        -3.74900
O         64.47589        72.00637         0.11100
H         63.78690        72.33207         0.74148
O         52.91148        52.51746         3.64102
H         52.44845        51.69282         3.92214
O         59.17318        67.41918        -2.53123
H         58.72202        66.62086        -2.89989
O         55.16390        71.13489        -1.43708
H         54.37033        70.64885        -1.74497
O         56.29564        72.26223         1.85043
H         57.19732        72.50797         2.14702
O         63.83201        65.08942         0.44836
H         63.88350        66.06342         0.55393
O         42.90687        53.21386        -0.77618
H         42.85492        52.35221        -1.24567
O         62.01921        72.42160         1.02743
H         61.25102        72.52753         1.64098
O         32.61143        53.89027         2.89013
H         32.57876        54.77270         3.31898
O         26.00197        72.36223         0.07443
H         25.31203        73.00892        -0.18346
O         21.31863        71.06589        -3.72821
H         21.18286        71.48088        -2.85206
O         48.49187        63.59456         3.15646
H         49.22372        63.98520         3.67859
O         35.89840        71.06584        -1.48547
H         35.16395        70.59648        -1.94667
O         50.44407        46.64600        -2.12498
H         50.85290        45.99480        -2.74340
O         42.70598        44.92491        -3.14213
H         41.79352        45.20709        -3.36944
O         47.97956        45.02246        -2.91694
H         47.30952        45.73382        -3.05839
O         52.76897        60.91900         3.55905
H         53.41222        61.53910         3.97226
O         44.02117        42.58725        -3.53933
H         43.34295        43.26792        -3.76710
O         39.04142        69.60890         3.05714
H         38.42887        68.99014         3.51025
O         50.44698        50.49422        -0.69057
H         49.93926        49.94288        -1.32340
O         43.77702        56.19718         3.68092
H         44.55647        55.69581         4.00501
O         40.45249        42.02909        -3.43642
H         39.76672        41.53037        -3.92753
O         49.19448        46.97552         1.97944
H         48.29778        46.86598         2.37607
O         42.87491        49.26009        -2.01195
H         43.14451        48.46505        -2.52155
O         52.63379        47.84754         2.47718
H         53.40725        48.19962         2.96645
O         45.32399        75.21568        -1.08001
H         45.30517        74.70559        -1.91674
O         50.17867        58.59186         3.93803
H         49.48900        57.97038         4.27706
O         28.59058        74.17697         0.70375
H         28.89717        73.60852         1.44805
O         56.71289        51.75436         3.07893
H         56.55720        52.62164         3.51197
O         46.55275        39.59728        -3.44665
H         47.32469        39.09059        -3.77173
O         53.54471        59.01306        -0.22805
H         52.81397        59.63758        -0.43543
O         58.83084        62.28941        -2.18175
H         59.42725        62.56477        -2.93863
O         33.18474        69.59405        -1.66604
H         33.17655        68.62274        -1.80913
O         38.85944        47.29893        -2.29010
H         39.63763        47.88507        -2.41389
O         41.37489        42.03974         0.12682
H         40.54055        42.44574         0.44641
O         45.25514        40.06829        -0.05860
H         44.57789        40.67113         0.31734
O         47.38093        66.96046         2.92450
H         47.32493        67.87579         3.29368
O         59.47704        63.53935         1.21794
H         59.65172        62.64686         1.58648
H         23.90937        74.65862        -4.20851
H         26.15915        74.73148        -3.24142
H         28.29234        74.90359        -2.10894
H         30.49895        75.17700        -0.99565
H         32.87148        75.12301        -1.11594
H         35.18328        74.93829        -1.79280
H         37.88941        75.06786        -1.69762
H         40.44754        74.88633        -1.44475
H         42.63651        75.17335        -0.59719
H         45.02883        74.88477         0.93071
H         47.65151        75.17140        -0.33606
H         50.13945        75.15948        -0.37920
H         52.59122        75.15797        -0.45363
H         55.05648        75.06709        -0.83053
H         57.52601        75.00412        -1.12137
H         59.92790        74.89273        -1.55184
H         62.23404        74.84918        -2.12002
H         64.66749        74.90605        -2.61090
H         67.13178        74.90568        -3.08663
H         22.74150        68.87909        -3.22374
H         22.76212        70.88434        -5.17649
H         21.98191        73.35317        -4.98056
H         24.74301        64.88390        -1.17073
H         23.71282        66.88492        -2.11924
H         26.90344        60.78091         0.32901
H         25.82232        62.84507        -0.30602
H         29.30907        56.23908         1.41445
H         27.83751        58.70733         1.23926
H         31.94541        52.24121         0.52264
H         30.62614        54.28808         0.90361
H         34.45049        48.60993        -1.25848
H         33.22932        50.30235        -0.19094
H         36.86612        43.89965        -1.15873
H         35.60923        45.92296        -1.52076
H         39.31238        39.70322        -1.88214
H         38.06196        41.91133        -1.66436
H         41.70629        35.43444        -1.54189
H         40.53094        37.57745        -1.65708
H         45.21238        32.02317        -1.37003
H         43.08886        33.22497        -1.73419
H         47.35065        33.22335        -1.08303
H         48.64603        35.37785        -1.15014
H         49.84978        37.49940        -1.06816
H         51.06472        39.57557        -0.75928
H         52.27964        41.62194        -0.32159
H         53.70792        43.79143        -0.27279
H         54.91016        45.90089        -0.08860
H         56.10625        48.04415         0.22485
H         57.31172        50.04333         0.79106
H         58.51622        52.19832         0.81604
H         59.63488        54.25269         0.43037
H         60.84631        56.37866        -0.07198
H         62.02741        58.50098        -0.47813
H         63.17288        60.60987        -0.99942
H         64.32829        62.76855        -0.70131
H         65.56354        64.87291        -1.77858
H         66.73960        66.88892        -2.61190
H         67.97240        68.98035        -3.09825
H         69.19817        71.13603        -3.56432
H         69.18115        73.61784        -3.65684
