         576
 CSIRO Nanostructure Databank - Neutral Graphene Oxide Data Set
C          5.85934        18.99865        -0.66572
C          5.90312        20.43831        -0.60565
C          4.68234        21.21712        -0.43819
C          5.92913        23.34064        -0.33590
C          4.69816        22.57791        -0.33500
C          5.96828        24.71037        -0.32252
C          8.32501        14.65183        -0.70084
C          8.28251        16.06175        -0.52965
C          7.07283        16.79278        -0.60504
C          8.31320        18.91565        -0.76539
C          7.01778        18.21818        -0.63440
C          8.36166        20.41654        -0.85060
C          7.10812        21.13418        -0.65137
C          8.42444        23.29199        -0.75210
C          7.21604        22.56717        -0.19506
C          8.40190        24.68029        -0.82066
C          7.22062        25.43709        -0.45179
C          8.50691        27.57400        -0.54638
C          7.29348        26.81158        -0.30625
C          8.53718        28.96528        -0.29418
C         10.88265        10.41460        -0.80448
C         10.80750        11.78485        -0.58680
C          9.60138        12.52964        -0.73775
C         10.67828        14.62666         0.07960
C          9.51373        13.91667        -0.51675
C         10.72624        16.10382         0.00589
C          9.54203        16.75651        -0.27386
C         10.82032        18.98100        -0.16369
C          9.51228        18.21969        -0.22518
C         10.82717        20.42101        -0.50488
C          9.64715        21.13237        -0.66032
C         10.90216        23.22196        -0.95795
C          9.64920        22.55378        -0.85468
C         10.93151        24.63957        -1.37652
C          9.58026        25.43427        -1.27398
C         10.91991        27.57808        -1.44053
C          9.62071        26.88598        -1.09060
C         10.90081        29.08548        -1.18806
C          9.67344        29.80783        -0.68999
C         10.95471        31.97279        -0.51620
C          9.81430        31.23380        -0.29539
C         11.00315        33.41603        -0.28460
C         13.36261         6.02199        -0.90752
C         13.22027         7.40261        -0.30910
C         12.08492         8.25059        -0.83389
C         13.28177        10.26635        -0.10720
C         12.08533         9.62155        -0.61875
C         13.17636        11.68144         0.29778
C         12.09855        12.53384        -0.34706
C         13.20180        14.68602         0.56400
C         11.94192        13.88551         0.32931
C         13.25562        16.11039         0.18138
C         12.00846        16.81399         0.02033
C         13.32149        18.86912        -0.62775
C         12.04560        18.19294        -0.20591
C         13.28250        20.35806        -0.38839
C         12.09770        21.09224        -0.49375
C         13.32421        23.26411        -0.48808
C         12.09750        22.52578        -0.67770
C         13.35604        24.61725        -0.68050
C         12.26550        25.40204        -1.36747
C         13.31856        27.62190        -0.47249
C         12.04591        26.81877        -0.68939
C         13.39565        28.97594        -0.61612
C         12.23429        29.78470        -1.10369
C         13.50097        32.00510        -0.60196
C         12.22164        31.28674        -0.93060
C         13.48077        33.43561        -0.21039
C         12.17283        34.15228        -0.18750
C         13.55252        36.21995        -0.24510
C         12.30092        35.58482        -0.25127
C         13.72706        37.60963        -0.61832
C         15.80671         5.98480        -0.51054
C         14.55557         5.37869        -0.93847
C         15.72556         7.33859         0.16700
C         14.55602         8.14038        -0.43891
C         15.69277        10.19446         0.44077
C         14.48598         9.56007         0.08073
C         15.70185        11.67150         0.48492
C         14.42893        12.41274         0.70008
C         15.77575        14.62769         0.58418
C         14.47905        13.92412         0.75288
C         15.77090        16.07263         0.39658
C         14.51541        16.79324         0.17825
C         15.81089        18.90914        -0.07887
C         14.56874        18.18041        -0.09824
C         15.81546        20.30383        -0.16988
C         14.58137        21.08767        -0.57669
C         15.83770        23.20870        -0.25123
C         14.52410        22.49638         0.05972
C         15.84276        24.69358        -0.35130
C         14.51908        25.37358        -0.16790
C         15.74003        27.51070         0.52217
C         14.45160        26.83885         0.09304
C         15.74331        29.00316         0.54898
C         14.56917        29.72219        -0.06205
C         15.93470        31.86862         0.18483
C         14.73964        31.18165        -0.36964
C         15.88309        33.24731         0.83918
C         14.56331        34.09889         0.65832
C         16.00026        36.11704         0.04241
C         14.76116        35.50380         0.09181
C         16.18775        37.49880        -0.38939
C         14.95702        38.20114        -0.71653
C         18.27456         6.03044        -0.41129
C         17.01690         5.36124        -0.66788
C         18.23854         7.47027        -0.13654
C         17.01209         8.12513         0.06936
C         18.20027        10.21967         0.52133
C         16.97128         9.51566         0.34653
C         18.15996        11.60096         1.14523
C         16.97867        12.41826         0.63503
C         18.23424        14.56501         0.60908
C         16.93566        13.90465         0.77016
C         18.26901        16.04305         0.36047
C         16.98675        16.77076         0.33505
C         18.32968        18.82531         0.09426
C         17.06753        18.18798         0.13006
C         18.39445        20.24310        -0.31320
C         17.09292        21.02262        -0.33147
C         18.36593        23.26820        -0.37979
C         17.12397        22.48206         0.12571
C         18.31922        24.69636         0.14110
C         17.13888        25.50915        -0.32306
C         18.32669        27.45883         0.73007
C         17.03079        26.76088         0.51313
C         18.31196        28.90145         0.51279
C         17.06512        29.68356         0.57093
C         18.37450        31.75279         0.66777
C         17.12064        31.05582         0.57262
C         18.44371        33.25614         0.75449
C         17.14790        33.98348         0.50369
C         18.48827        35.95814         0.10070
C         17.19188        35.32591         0.28330
C         18.69155        37.43990         0.08988
C         17.43909        38.09835        -0.47985
C         20.74595         6.03498        -0.36716
C         19.48483         5.35362        -0.44377
C         20.71431         7.53767        -0.52069
C         19.44535         8.19993        -0.04349
C         20.71736        10.25097         0.74615
C         19.42492         9.55767         0.34023
C         20.69761        11.76385         0.46342
C         19.47922        12.39104         1.11154
C         20.75175        14.62205         0.95569
C         19.47487        13.87763         1.04852
C         20.71075        16.01649         0.96881
C         19.52327        16.75618         0.66005
C         20.82074        18.83322         0.67811
C         19.55011        18.14765         0.50541
C         20.90883        20.25978         0.35419
C         19.68491        21.00065        -0.13302
C         20.63646        23.13048         0.86915
C         19.67038        22.50540        -0.06774
C         20.30488        24.33458         1.39628
C         19.32640        25.26841         0.86945
C         20.71973        27.48229         1.39752
C         19.46580        26.74623         1.03489
C         20.75594        28.89493         1.30058
C         19.63758        29.61955         0.70068
C         20.82875        31.78833         0.82770
C         19.56663        31.08186         0.78420
C         20.87690        33.12608         0.18308
C         19.54143        33.74183        -0.19648
C         20.80605        36.03258        -0.53290
C         19.59271        35.24177        -0.15945
C         20.85802        38.91012        -0.21968
C         20.12499        37.62768        -0.57276
C         23.24281         6.06167        -0.33324
C         21.96734         5.38492        -0.33648
C         23.26470         7.56763        -0.48696
C         21.97666         8.18477        -0.02692
C         23.23818        10.38565         0.27780
C         21.94667         9.62301         0.13599
C         23.20762        11.78580         0.78178
C         21.99151        12.47387         0.84135
C         23.20141        14.54974         1.39189
C         21.97820        13.87855         1.10322
C         23.17832        15.98886         1.73784
C         21.89027        16.76056         1.45116
C         23.19328        18.90814         1.52217
C         21.96013        18.20684         1.19145
C         23.21685        20.30836         1.52421
C         22.07035        21.02275         0.92857
C         23.15526        23.22399         1.09288
C         21.86927        22.43112         1.44172
C         23.18236        24.68727         1.51571
C         22.11965        25.43210         1.97335
C         23.19246        27.60908         1.91388
C         21.94264        26.85139         1.79916
C         23.21795        29.08558         1.81610
C         21.86255        29.76301         1.92197
C         23.15279        31.98435         1.55003
C         21.93275        31.17491         1.34098
C         23.22206        33.37038         1.08113
C         22.09302        33.98928         0.34879
C         23.16903        36.12961         0.63890
C         22.00710        35.48382         0.27251
C         23.31214        38.69276        -0.97448
C         22.13179        39.39434        -0.54434
C         25.71303         6.08811        -0.22649
C         24.44131         5.39023        -0.27815
C         25.72229         7.48957         0.07096
C         24.48757         8.23664         0.10901
C         25.66267        10.28012         0.91705
C         24.46629         9.58540         0.41253
C         25.69373        11.75548         0.98790
C         24.43729        12.46391         1.03390
C         25.68969        14.50783         1.72704
C         24.41698        13.84408         1.35576
C         25.70321        16.02106         1.96188
C         24.43522        16.77255         1.80444
C         25.64525        18.89944         2.18239
C         24.40252        18.15075         1.83436
C         25.64350        20.40631         2.13312
C         24.39921        21.11191         1.76284
C         25.66808        23.24076         1.47175
C         24.42178        22.49109         1.54532
C         25.67740        24.66180         1.24438
C         24.38293        25.43305         1.01166
C         25.65309        27.61086         1.26917
C         24.44685        26.82602         1.62400
C         25.68976        29.04401         1.69697
C         24.39815        29.76839         1.74260
C         25.73678        31.95744         1.44266
C         24.47605        31.25202         1.78538
C         25.71667        33.35797         1.19223
C         24.45245        34.04552         1.08956
C         25.63292        35.96158         0.17027
C         24.44351        35.41889         0.69772
C         25.72894        38.25250        -0.50742
C         24.62648        39.13776        -0.64515
C         28.17046         6.10914        -0.36827
C         26.93341         5.41284        -0.38254
C         28.15830         7.51223        -0.13266
C         26.96070         8.16643         0.19737
C         28.17773        10.37510         0.57953
C         26.98733         9.53741         0.74618
C         28.15071        11.73575         0.74017
C         26.91609        12.44264         1.01892
C         28.13901        14.59137         1.28922
C         26.95311        13.86406         1.30849
C         28.16122        16.01080         1.57971
C         26.99288        16.71640         1.80057
C         28.18594        18.97347         1.70118
C         26.99617        18.17680         2.09849
C         28.17606        20.34850         1.57550
C         26.96694        21.14646         1.90119
C         28.14311        23.26104         1.26107
C         26.91272        22.57060         1.51239
C         28.14385        24.69634         1.14245
C         26.88819        25.36327         1.17375
C         28.19381        27.58669         1.33509
C         26.90601        26.84551         1.04887
C         28.10752        29.04006         0.82536
C         26.96908        29.78619         1.49570
C         28.17180        31.91221         1.03693
C         26.94372        31.25084         1.30559
C         28.15657        33.31234         0.81574
C         26.92950        34.04128         0.84820
C         28.12386        36.09614        -0.20530
C         26.89316        35.39066         0.35751
C         28.15331        37.63323        -0.02529
C         27.04518        38.53175        -0.10689
C         30.65591         6.12109        -0.45606
C         29.43302         5.44656        -0.53719
C         30.69495         7.54009        -0.24420
C         29.41783         8.27118        -0.20665
C         30.73138        10.26616         0.74078
C         29.43043         9.72940         0.12722
C         30.69206        11.82454         0.93562
C         29.40555        12.48445         0.33020
C         30.66889        14.67945         0.81587
C         29.36494        13.96758         0.71472
C         30.82348        15.98163         1.58500
C         29.46672        16.77702         1.89023
C         30.63431        18.95484         0.92779
C         29.37057        18.18905         1.26828
C         30.58495        20.41102         0.98249
C         29.37633        21.08630         1.18053
C         30.60018        23.25345         0.82546
C         29.34166        22.52350         1.10966
C         30.61993        24.74008         0.70132
C         29.34581        25.45038         0.87597
C         30.53829        27.58714         0.39891
C         29.37682        26.84115         0.78787
C         30.57831        28.99197         0.54953
C         29.42759        29.75878         0.94505
C         30.69382        31.88763         0.99079
C         29.41356        31.15107         0.98440
C         30.61444        33.36171         0.88839
C         29.39207        34.03606         0.60094
C         30.62857        36.12192         0.24590
C         29.40046        35.41710         0.28584
C         30.64094        37.55064         0.07195
C         29.41586        38.25060         0.04904
C         33.09754         6.12634        -0.64356
C         31.91964         5.43795        -0.61869
C         33.13940         7.56366        -0.49447
C         31.89642         8.25569        -0.23659
C         33.07702        10.41166        -0.21282
C         31.92052         9.68331        -0.00060
C         33.08456        11.86421        -0.05724
C         31.92836        12.54319         0.40552
C         33.15724        14.65344         0.37205
C         31.95286        13.94158         0.54828
C         33.28170        16.07538         0.87686
C         31.90537        16.75782         0.74483
C         33.09958        18.92535         0.62693
C         31.94255        18.25569         0.92123
C         32.99731        20.35935         0.25751
C         31.89254        21.17596         0.88440
C         32.93649        23.25850        -0.17010
C         31.66047        22.47499         0.09073
C         32.86897        24.70454        -0.35858
C         31.73582        25.42575         0.00246
C         32.70325        27.54442        -0.80968
C         31.68010        26.86748        -0.15243
C         32.65120        29.00821        -0.98649
C         31.66284        29.76070        -0.10782
C         33.12920        31.83991        -0.15342
C         31.94314        31.13755         0.42750
C         33.54289        33.11595         0.31136
C         31.77559        34.12739         0.95392
C         33.14753        36.09770         0.30476
C         31.86351        35.45793         0.50947
C         33.09789        37.51886         0.11662
C         31.90540        38.21102         0.04097
C         34.31405         8.28852        -0.61945
C         35.44631        10.45389        -0.88356
C         34.30977         9.72823        -0.58565
C         35.36024        11.92333        -1.18847
C         34.22143        12.61726        -0.43144
C         35.47505        14.79767        -0.51399
C         34.29346        14.00964        -0.18142
C         35.55294        16.16453        -0.26865
C         34.37972        16.87063         0.21147
C         35.60600        19.04316         0.21611
C         34.33710        18.23855         0.28172
C         35.49230        20.45859        -0.29795
C         34.16576        21.10372        -0.29600
C         35.29862        23.22732        -1.04916
C         34.09450        22.58147        -0.41207
C         35.23758        24.73337        -1.07432
C         34.03186        25.38801        -0.88909
C         35.16457        27.55209        -1.71260
C         33.89105        26.80678        -1.27765
C         35.20804        29.08123        -1.73683
C         33.86289        29.76742        -1.46111
C         35.86292        32.17238        -1.10445
C         33.85393        31.20194        -1.16796
C         35.84010        33.48418        -0.53937
C         34.59203        34.01849        -0.10425
C         34.38079        35.41809         0.13314
C         36.60483        12.70879        -0.94793
C         37.91180        14.86237        -1.19664
C         36.59465        14.14651        -1.35281
C         37.96212        16.23227        -0.96799
C         36.74848        16.93475        -0.56433
C         37.96314        19.08446        -0.59782
C         36.77767        18.31395        -0.38367
C         37.92531        20.49948        -0.56250
C         36.63893        21.17723        -0.48585
C         37.80240        23.36955        -1.05314
C         36.59601        22.69232        -0.44603
C         37.72657        24.71058        -1.40684
C         36.45428        25.44177        -1.40483
C         37.64019        27.56524        -2.13216
C         36.42983        26.80478        -1.65255
C         37.66175        28.95251        -1.53362
C         36.53934        29.73816        -1.44597
C         36.72429        31.10256        -0.95455
C         39.16659        16.97707        -1.10085
C         40.37843        19.11776        -1.05228
C         39.20049        18.38767        -0.92722
C         40.43871        20.56997        -0.66463
C         39.10562        21.27185        -0.78730
C         40.24209        23.36369        -1.48068
C         39.04695        22.64696        -1.07656
C         40.18602        24.71121        -1.75431
C         38.94368        25.44614        -1.72299
C         38.91842        26.79959        -1.96775
C         41.56751        21.30802        -1.33538
C         41.48117        22.61553        -1.64540
O         25.68667        15.06217         3.07696
O         31.08911        24.04965         1.95634
O         22.04397        20.67329        -0.48090
O         16.24001        26.81962         1.72809
O         29.69700        18.37675        -0.12624
O         24.05242        27.01346         2.99096
O         26.38727        20.97313         3.24128
O         21.00685        24.78303         2.52492
O         25.46667        36.92665        -0.85329
O         19.19741        29.18816        -0.63773
O         30.84743         9.65313         2.00424
O         34.21984        27.02736        -2.69823
O         16.48580        12.10665        -0.71321
O         22.25303        16.34784         2.81388
O         12.38069        30.67272        -2.25325
O         13.75918        14.45614         1.91194
O         15.80304        23.84096        -1.55081
O          8.45612        19.56139        -2.06791
O         32.93634        33.54382         1.49091
O         15.79627        31.64256        -1.26489
O         26.32529         9.62854         2.04907
O         19.56102        13.15267         2.35051
O         34.71307        31.93907        -1.93548
O         14.69503        29.54959         1.40794
O         26.13445        27.36121        -0.09415
O         21.83923        33.21342        -0.91856
O         29.85517        14.81010        -0.40375
O          9.98751        18.74797         1.04887
O         34.37510        29.55302        -2.82094
O         10.14538        24.92840        -2.54388
O         22.57193        10.31610        -1.06282
O         26.33808        18.43992         3.37292
O         13.53288        11.87267         1.70463
O         13.81150        33.07627        -1.57571
O         14.10108        25.86194         1.16850
O         31.71909        31.28189         1.84624
O         26.57860        29.33776         2.82566
O         10.00685        29.68222        -2.16602
O         10.99660        14.01638         1.40833
O         31.45651        29.63684        -1.56886
O         23.72562        31.81460         2.91167
O         33.14735        20.46855        -1.20417
O         17.75912        20.63130        -1.57996
O         29.42817         9.35537        -1.26746
O         18.41901        15.08566        -0.75836
O         13.98571        34.30442         1.92365
O         29.38963        16.99425         3.26491
O         20.10793        21.82316        -1.27255
O         14.70587        21.24984        -2.02353
H         15.53303        21.74362        -2.22343
O         28.36038        27.57412         2.77001
H         29.18408        28.05336         2.99654
O         31.61479        16.59644        -0.66445
H         30.77108        17.07171        -0.86187
O         14.79747         8.25588        -1.86397
H         15.65053         8.72187        -1.99529
O         18.26706        23.38979        -1.80907
H         18.84309        22.67722        -2.19136
O         35.30696        22.79252        -2.43877
H         34.49303        23.12441        -2.87271
O         36.23017        14.33825        -2.74122
H         35.64260        13.58599        -3.00508
O         17.20416        22.45342         1.56834
H         16.31095        22.21119         1.91704
O         23.13756        37.57035        -1.68709
H         24.00832        37.10333        -1.76371
O         34.99667        11.99682        -2.61698
H         34.10806        11.59262        -2.71530
O         32.36050        21.49511         2.21250
H         31.83628        22.24533         2.57205
O         23.17543        23.20093        -0.35247
H         23.69382        23.97055        -0.69321
O         21.55464        29.89079         3.33758
H         22.24114        30.48446         3.72192
O         37.46521        27.74029        -3.58436
H         36.55089        28.06006        -3.74552
O         12.91813         7.22504         1.11717
H         12.06514         6.74756         1.18950
O         15.53010         7.12688         1.58518
H         14.57117         6.94784         1.74045
O         31.08466        22.15550        -1.19397
H         31.69363        21.50724        -1.63054
O         30.64446        12.08285         2.34137
H         30.77644        11.18141         2.76247
O         11.52000        26.56491         0.63350
H         12.27755        26.27396         1.20265
O          7.47345        22.47941         1.25781
H          6.67560        22.08762         1.67315
O         11.13256        27.46554        -2.86603
H         10.61407        28.19376        -3.28182
O         18.85237        33.59555         2.10894
H         18.06803        33.40390         2.67669
O         12.74841        25.53228        -2.70765
H         11.99362        25.82393        -3.27264
O         19.20701        33.31610        -1.52574
H         19.98250        33.52217        -2.09343
O         29.48734        12.37983        -1.10387
H         29.75106        13.27225        -1.43739
O         21.73598        22.26192         2.86186
H         21.52754        23.14083         3.25788
O         23.36663         7.82580        -1.94848
H         23.30370         8.81019        -2.04328
O         20.12058        39.82120         0.42972
H         19.32563        39.40277         0.85077
O         31.33830        15.61676         2.86877
H         30.71488        16.05623         3.53073
O         40.75168        20.57078         0.78541
H         41.61079        20.11195         0.90052
O         16.00935        32.95332         2.25704
H         15.22014        33.43795         2.65936
O         23.19909        37.42722         1.03750
H         22.28574        37.75855         1.15837
O         21.09475        35.73991        -1.90045
H         21.95431        36.14851        -2.13858
O         20.46211        11.96727        -0.94841
H         21.19833        11.52390        -1.43666
O         14.40670        22.33416         1.49320
H         14.10323        23.18241         1.88249
O         20.69882         7.79236        -1.97440
H         21.60743         7.57075        -2.30952
O         36.57718        23.05925         0.96193
H         37.29129        22.56502         1.41724
O         18.79886        37.88989         1.48903
H         17.97462        37.61479         1.94620
O         17.88113        11.32132         2.54659
H         18.23047        12.08207         3.07147
O         13.40145        18.72019        -2.09901
H         14.00936        19.42762        -2.42578
O         33.77992        16.01069         2.23555
H         33.03881        15.67671         2.80787
O         28.11140        35.89509        -1.65545
H         27.27061        36.27785        -1.98837
O         24.22664        25.62314        -0.43072
H         24.99387        26.17490        -0.73714
O         27.82517        29.07342        -0.59436
H         28.61169        28.74305        -1.07820
O         20.85709        10.06200         2.17587
H         20.01175        10.32006         2.60735
O         17.37377        25.98523        -1.66446
H         17.55968        25.18400        -2.21254
O         35.96056        19.23635         1.64400
H         35.81956        18.37888         2.10198
O         12.63047        12.87530        -1.66798
H         12.60763        12.07166        -2.23010
H          4.87476        18.50811        -0.62771
H          3.72210        20.68079        -0.43363
H          3.74833        23.13102        -0.27688
H          5.03260        25.28987        -0.28365
H          7.40927        14.12368        -1.00716
H          6.12952        16.23043        -0.68206
H          6.39190        27.36666        -0.00661
H          7.65959        29.44046         0.16774
H          9.96270         9.87277        -1.07442
H          8.69483        11.98888        -1.05173
H          8.91701        31.73844         0.09606
H         10.03454        33.93874        -0.22927
H         12.45647         5.51168        -1.27049
H         11.15841         7.75448        -1.16500
H         11.39843        36.18951        -0.43764
H         12.82935        38.19581        -0.86925
H         14.60698         4.36078        -1.35777
H         15.02737        39.25203        -1.03681
H         17.05251         4.33551        -1.06961
H         17.49557        39.15022        -0.80585
H         19.48427         4.25734        -0.55155
H         19.94182        37.71170        -1.67152
H         21.98088         4.28316        -0.29706
H         22.33225        40.38808        -0.11602
H         24.45205         4.28910        -0.25779
H         24.72797        40.14477        -0.21852
H         26.93195         4.32633        -0.55627
H         27.28350        39.59376         0.06252
H         29.43387         4.36054        -0.71697
H         29.45393        39.35141         0.06068
H         34.04586         5.59053        -0.79898
H         31.91334         4.34590        -0.75077
H         34.04589        38.06801         0.01360
H         31.92293        39.30362        -0.08459
H         35.26182         7.76930        -0.82745
H         36.36283         9.92237        -1.18176
H         36.75846        34.07430        -0.41141
H         35.24336        36.06726        -0.09327
H         37.19483        12.43865        -0.05581
H         38.82696        14.33161        -1.50124
H         38.63893        29.40708        -1.30735
H         37.67969        31.29016        -0.44170
H         40.09439        16.44936        -1.36990
H         41.32221        18.59448        -1.27518
H         41.10131        25.24586        -2.05057
H         39.85859        27.32673        -2.19118
H         42.51444        20.76488        -1.48265
H         42.34729        23.14608        -2.07003
