         621
 CSIRO Nanostructure Databank - Neutral Graphene Oxide Data Set
C          5.79189        31.62157         1.68564
C          5.74315        32.97340         1.54694
C          8.41029        27.31234         1.14622
C          8.25221        28.75297         1.11827
C          7.09625        29.39588         1.53782
C          8.30641        31.62869         1.26372
C          7.06010        30.85469         1.66586
C          8.13632        33.05228         0.86306
C          6.90519        33.78999         1.23875
C          8.05639        35.97981         0.99230
C          6.87835        35.16775         1.20543
C          8.05601        37.35868         1.02280
C         10.96791        23.16702         0.18852
C         10.91216        24.54680         0.22134
C          9.70264        25.17496         0.89773
C         10.59490        27.40946         0.05107
C          9.56355        26.67162         0.73479
C         10.34322        28.76125        -0.13377
C          9.36728        29.51966         0.58535
C         10.70839        31.70216         0.60686
C          9.47568        30.91969         0.68965
C         10.67154        33.07932         0.83273
C          9.41336        33.81617         0.61683
C         10.59816        36.03283         1.12867
C          9.36018        35.30385         0.74621
C         10.48310        37.42275         1.71954
C          9.28140        38.14578         1.11630
C         10.49121        40.33057         1.23630
C          9.32398        39.48798         0.87082
C         10.65842        41.68602         0.70271
C         13.37759        18.93260        -0.58809
C         13.34056        20.35284        -0.58901
C         12.16254        21.06460        -0.27236
C         13.29623        23.22783        -0.62728
C         12.12902        22.47161        -0.26605
C         13.21935        24.67233        -0.66426
C         12.00294        25.31239        -0.30778
C         13.17089        27.60416        -0.64618
C         11.82297        26.76488        -0.48841
C         13.25379        29.00528        -0.17780
C         12.15917        29.86267        -0.20863
C         13.20362        31.61265         1.10966
C         12.03507        31.06696         0.53444
C         13.14959        33.03265         1.61032
C         11.84699        33.79122         1.36692
C         13.01329        36.00869         1.40804
C         11.86173        35.28016         1.33329
C         12.99376        37.46717         1.52802
C         11.80869        38.15655         1.61113
C         13.02689        40.38252         1.62525
C         11.76411        39.62881         1.72519
C         13.08783        41.67875         1.15679
C         11.87236        42.36863         0.72104
C         13.16154        44.43805         0.16951
C         11.95188        43.74474         0.30481
C         13.25322        45.80244        -0.19654
C         15.81245        14.64468        -0.94146
C         15.75244        16.04153        -1.09947
C         14.58983        16.79491        -0.85130
C         15.74345        18.97431        -1.21227
C         14.55351        18.22494        -0.89725
C         15.76012        20.37506        -1.14613
C         14.53793        21.09783        -0.86973
C         15.74079        23.24295        -1.19191
C         14.49323        22.51043        -0.89214
C         15.71666        24.75945        -1.14038
C         14.42573        25.46339        -0.86678
C         15.67763        27.62971        -0.61848
C         14.42352        26.83306        -0.65785
C         15.70745        28.92909         0.08442
C         14.45437        29.56212         0.34502
C         15.66821        31.26501         1.51391
C         14.41337        30.83419         0.99590
C         15.62419        33.37654         1.82717
C         14.38208        33.88683         1.54637
C         15.60974        36.09336         1.26897
C         14.30626        35.31636         1.21040
C         15.58397        37.51077         1.67319
C         14.27101        38.15637         1.88523
C         15.52610        40.43605         2.08968
C         14.24128        39.67148         2.05722
C         15.53199        41.81562         1.56289
C         14.37645        42.36916         1.07467
C         15.73098        44.38801         0.22494
C         14.41560        43.66697         0.34599
C         15.73054        45.84105        -0.07137
C         14.48743        46.50523        -0.30648
C         15.74367        48.60457        -0.67406
C         14.54648        47.89787        -0.62792
C         15.72068        50.07551        -1.04226
C         18.33661        10.40028        -0.50746
C         18.29057        11.82434        -0.56837
C         17.07002        12.51863        -0.72774
C         18.29812        14.61393        -0.97339
C         17.04459        13.91659        -0.91596
C         18.30490        16.00979        -1.44237
C         16.97009        16.74407        -1.56427
C         18.29598        18.97562        -1.51605
C         16.95756        18.24185        -1.61614
C         18.26553        20.41209        -1.15378
C         17.02077        21.09729        -1.16558
C         18.20236        23.19252        -0.69242
C         17.02105        22.50827        -0.99560
C         18.12967        24.62969        -0.36520
C         16.98096        25.42544        -0.79820
C         18.20915        27.56248        -0.16479
C         17.02161        26.87079        -0.68692
C         18.18291        28.88896         0.17996
C         16.92712        29.58409         0.35569
C         18.08993        31.73254         1.11098
C         16.91594        30.86105         1.02891
C         18.08307        33.12644         1.28613
C         16.89761        33.95665         1.47941
C         18.08035        36.13610         1.30697
C         16.88713        35.35691         1.36413
C         18.03346        37.50928         1.52591
C         16.78413        38.18536         1.83132
C         18.06473        40.35152         1.57935
C         16.81615        39.65651         2.08437
C         18.09978        41.84635         1.74640
C         16.79888        42.62717         1.79499
C         18.19023        44.35705         0.56891
C         16.90244        43.81079         0.89072
C         18.19541        45.77891        -0.00798
C         16.93799        46.54924        -0.10603
C         18.23387        48.65324        -0.49672
C         16.97980        47.94829        -0.39347
C         18.30437        50.00345        -0.85824
C         17.07988        50.76162        -1.08550
C         18.40187        52.90186        -1.21807
C         17.13320        52.10047        -1.30950
C         18.49709        54.00667        -2.23493
C         20.83567         6.22725        -1.17643
C         20.83047         7.59594        -0.80455
C         19.52772         8.21235        -0.35325
C         20.76704        10.44535        -0.26681
C         19.53779         9.72388        -0.40777
C         20.73278        11.85371        -0.21374
C         19.51622        12.55290        -0.44160
C         20.73749        14.72867        -0.60159
C         19.50413        13.97523        -0.64399
C         20.75587        16.08406        -0.87996
C         19.53953        16.79904        -1.24901
C         20.73379        18.89511        -0.85998
C         19.50961        18.17539        -1.25989
C         20.72660        20.38287        -0.73667
C         19.45690        21.11393        -0.90462
C         20.69756        23.17211        -0.33363
C         19.45800        22.50995        -0.64344
C         20.67858        24.55137         0.16259
C         19.38209        25.31841         0.09813
C         20.76601        27.50347        -0.05905
C         19.47327        26.78203        -0.17905
C         20.70197        28.99330         0.08671
C         19.43063        29.54649         0.75417
C         20.67511        31.81854         0.72886
C         19.35797        31.08024         0.64957
C         20.66670        33.24010         1.08670
C         19.33491        33.89947         0.95789
C         20.63841        36.13183         1.03912
C         19.32103        35.40961         0.94457
C         20.60719        37.58110         1.40627
C         19.30529        38.28095         1.54536
C         20.57629        40.40340         2.05780
C         19.27039        39.64525         2.21091
C         20.57931        41.75390         1.92799
C         19.32546        42.48005         1.68615
C         20.67585        44.41352         0.91707
C         19.44034        43.82311         1.15506
C         20.74734        45.63484         0.01968
C         19.48682        46.48666         0.17177
C         20.78695        48.48528        -0.61635
C         19.48704        47.94579        -0.13626
C         20.84066        49.91842        -1.03861
C         19.57395        50.68949        -1.02270
C         20.91842        52.71895        -1.45000
C         19.64395        52.04458        -1.27052
C         20.93955        54.02815        -1.89268
C         19.72927        54.60308        -2.47644
C         21.13431        56.31175        -3.62948
C         19.88700        55.67169        -3.39882
C         21.26268        57.23525        -4.66785
C         23.28432         3.44376        -1.66284
C         22.06657         4.10218        -1.55629
C         23.27671         6.25246        -1.57841
C         22.01057         5.51946        -1.45719
C         23.26650         7.71533        -1.15128
C         22.01414         8.32803        -0.68612
C         23.24954        10.40208        -0.16131
C         22.03885         9.72481        -0.28670
C         23.27487        11.85864         0.10665
C         21.96544        12.60739         0.11668
C         23.27729        14.73143        -0.48650
C         21.97307        14.13722         0.04563
C         23.28781        16.08542        -0.78281
C         22.02321        16.80580        -0.87135
C         23.23724        18.93089        -1.23705
C         22.00709        18.17230        -1.00894
C         23.23872        20.45622        -1.11491
C         21.98421        21.14171        -0.77827
C         23.22570        23.23704        -0.41497
C         21.95741        22.50544        -0.49003
C         23.22884        24.59314        -0.13754
C         22.00666        25.31053         0.26138
C         23.20586        27.49830         0.34692
C         22.02768        26.79726         0.24901
C         23.24445        28.95325         0.40877
C         21.98673        29.71583         0.30144
C         23.13537        31.76772         1.08175
C         21.96263        31.10544         0.78726
C         23.13864        33.20613         1.30033
C         21.85857        33.90058         1.27730
C         23.12432        36.07893         1.74390
C         21.90785        35.37843         1.25411
C         23.09791        37.43265         1.99204
C         21.81832        38.16970         2.05605
C         23.11594        40.36855         2.28637
C         21.82183        39.64341         2.32706
C         23.09779        41.75001         2.20142
C         21.81907        42.57202         2.24213
C         23.12625        44.48709         1.21508
C         21.90411        43.84373         1.40296
C         23.23717        45.75876         0.52590
C         22.01259        46.44757         0.16140
C         23.28438        48.40490        -0.63225
C         22.02159        47.75987        -0.24015
C         23.36487        49.89451        -0.68634
C         22.12808        50.64623        -0.97791
C         23.44735        52.69026        -1.34953
C         22.16886        52.00002        -1.21112
C         23.45974        54.07560        -1.65353
C         22.17585        54.87601        -1.75707
C         23.48826        56.61540        -2.93058
C         22.29166        55.97008        -2.80084
C         23.65350        57.72770        -3.88446
C         22.46474        58.04397        -4.83106
C         24.05834        59.11330        -6.36969
C         22.79156        58.68083        -6.11048
C         24.51730         4.13148        -1.62994
C         25.77637         6.26345        -1.45412
C         24.56198         5.52619        -1.54398
C         25.81680         7.60634        -1.05560
C         24.54834         8.24482        -0.62174
C         25.83078        10.38703        -0.07920
C         24.52599         9.65448        -0.10229
C         25.80927        11.88368        -0.11328
C         24.52218        12.62046        -0.15793
C         25.79133        14.70438        -0.53393
C         24.51529        13.98017        -0.42467
C         25.80047        16.14129        -0.73824
C         24.53395        16.83323        -0.92866
C         25.72839        18.99557        -1.34558
C         24.50586        18.20470        -1.13083
C         25.71990        20.44064        -1.01336
C         24.53077        21.14267        -0.85805
C         25.71081        23.29571        -0.57936
C         24.49725        22.55481        -0.57935
C         25.75629        24.69595        -0.44240
C         24.50281        25.30487         0.04182
C         25.76783        27.47933         0.29866
C         24.47928        26.73923         0.45258
C         25.71407        28.95482         0.50728
C         24.41041        29.65238         0.62747
C         25.59764        31.79323         0.97349
C         24.41609        31.08339         0.91145
C         25.68146        33.22930         1.42686
C         24.33137        33.91606         1.40206
C         25.57398        36.04114         1.62561
C         24.36450        35.34270         1.62774
C         25.63638        37.39331         2.16960
C         24.30894        38.15664         2.40497
C         25.60359        40.29825         2.38658
C         24.34426        39.63325         2.36303
C         25.64541        41.74521         2.31798
C         24.36586        42.47464         2.30196
C         25.66207        44.49685         1.42817
C         24.36479        43.93262         1.80427
C         25.71115        45.72594         0.73833
C         24.48237        46.36531         0.32403
C         25.86492        48.35895        -0.49681
C         24.55617        47.66934        -0.36101
C         25.96848        49.74042        -1.17792
C         24.70470        50.55992        -0.85854
C         25.91138        52.68199        -1.27605
C         24.67819        51.99309        -1.24132
C         25.90137        54.08561        -1.50491
C         24.67650        54.75196        -1.76858
C         25.98595        56.74252        -2.52672
C         24.65080        56.25319        -2.02071
C         26.13214        57.54929        -3.60421
C         25.00497        58.05455        -4.36606
C         25.16271        58.80991        -5.50547
C         27.02059         8.34600        -0.95095
C         28.27857        10.42394        -0.53403
C         27.06697         9.69406        -0.55383
C         28.31214        11.83798        -0.44964
C         27.01211        12.54717        -0.75922
C         28.24856        14.70184        -0.20173
C         26.99222        14.01874        -0.47247
C         28.27651        16.22877        -0.41008
C         27.00724        16.83360        -0.83836
C         28.29863        18.98787        -1.02057
C         27.04346        18.24172        -1.23960
C         28.29716        20.38945        -0.96326
C         27.00743        21.08645        -0.70701
C         28.22790        23.36986        -0.82519
C         27.00285        22.60017        -0.55082
C         28.18686        24.73952        -1.03018
C         26.93536        25.46918        -0.71976
C         27.79386        27.83646        -1.03481
C         26.85242        26.88469        -0.53254
C         28.03314        29.09652        -0.49480
C         26.82701        29.78957        -0.00698
C         28.12171        31.91628         0.45768
C         26.80462        31.23242         0.32851
C         28.08869        33.36128         0.60898
C         26.72098        34.00154         0.55941
C         28.09543        36.19356         1.19590
C         26.77820        35.47456         0.98170
C         28.09349        37.48773         1.91114
C         26.89165        38.17123         2.12823
C         28.08231        40.31620         2.61475
C         26.82853        39.56787         2.40651
C         28.10922        41.76069         2.35900
C         26.85291        42.45396         2.19887
C         28.09835        44.54675         1.62433
C         26.86778        43.84527         1.77007
C         28.18924        45.81370         0.98794
C         26.96608        46.31378         0.42766
C         28.79608        48.57585        -0.32346
C         26.91513        47.48722        -0.41665
C         28.59147        50.01447        -0.61126
C         27.24028        50.59036        -0.85610
C         28.29131        52.83117        -0.58115
C         27.15985        51.97967        -0.95271
C         28.22475        54.25290        -0.82266
C         27.12047        54.85380        -1.35120
C         27.14602        56.33702        -1.65621
C         29.50233        12.56043        -0.31518
C         30.70207        14.73739        -0.11721
C         29.53484        13.98510        -0.25206
C         30.77092        16.16610        -0.28098
C         29.58219        16.87035        -0.67409
C         30.68596        19.05132        -1.20212
C         29.52539        18.26719        -1.00284
C         30.74043        20.42588        -0.95624
C         29.51020        21.11363        -0.83351
C         30.80476        23.28417        -0.78829
C         29.49447        22.58976        -0.67036
C         30.79948        24.70714        -1.21874
C         29.49423        25.40746        -1.39263
C         30.66209        27.63093        -0.95981
C         29.64256        26.87830        -1.46965
C         30.62637        29.12537        -0.94333
C         29.26952        29.86449        -0.73897
C         30.60203        32.01084        -0.20321
C         29.36116        31.20227        -0.05061
C         30.57411        33.35603         0.13677
C         29.28968        34.16687         0.18519
C         30.57016        36.12436         1.12391
C         29.38448        35.49071         0.93124
C         30.65407        37.44173         1.80683
C         29.38562        38.10667         2.25763
C         30.63715        40.33740         2.25532
C         29.41247        39.57738         2.54981
C         30.60201        41.74804         2.32364
C         29.33070        42.42973         2.33380
C         30.52788        44.70645         2.33443
C         29.28270        43.90876         2.24156
C         30.51313        46.08729         1.80321
C         29.45836        46.60011         1.08010
C         30.64949        48.87624         1.18309
C         29.58453        48.01316         0.63959
C         30.65316        50.26002         0.89348
C         29.67660        50.90131         0.01728
C         29.39926        52.32600         0.06866
C         32.01174        16.81488         0.08448
C         33.30544        19.04380         0.12677
C         32.43584        18.06183        -0.39775
C         33.29364        20.41983        -0.28623
C         32.10234        21.06905        -0.94308
C         33.29353        23.36362        -0.62130
C         32.10427        22.56604        -0.99008
C         33.21623        24.78006        -0.65208
C         32.01734        25.47964        -0.88733
C         33.14347        27.72078        -0.34042
C         31.88941        26.90717        -0.54270
C         33.07328        29.19166        -0.43832
C         31.87132        29.86718        -0.57629
C         33.06479        32.05857        -0.45839
C         31.83845        31.30963        -0.42566
C         33.07763        33.40306        -0.15221
C         31.85608        34.03482         0.37046
C         33.07679        36.30329         0.71790
C         31.87473        35.45044         0.87505
C         33.07789        37.61910         1.14167
C         31.87190        38.26925         1.63003
C         33.13999        40.37712         2.09249
C         31.84542        39.62770         1.91947
C         33.02644        41.87161         1.90560
C         31.83795        42.51417         2.16706
C         33.01090        44.74572         1.83785
C         31.87521        44.00041         2.51701
C         32.95349        46.11749         1.73301
C         31.74107        46.86358         2.25281
C         31.70852        48.30687         1.88112
C         34.35810        21.24534         0.09489
C         35.55742        23.41212         0.31989
C         34.44359        22.67368        -0.11646
C         35.73029        24.81517        -0.05573
C         34.48500        25.54232        -0.61103
C         35.64860        27.78052        -0.16223
C         34.45241        27.06550        -0.74813
C         35.62783        29.17947        -0.19011
C         34.33072        29.97660        -0.12527
C         35.62161        32.10896        -0.67971
C         34.31659        31.32093        -0.89947
C         35.60124        33.54284        -0.33573
C         34.29965        34.22949        -0.26319
C         35.60181        36.34091         0.44329
C         34.30070        35.69150         0.13979
C         35.55741        37.70738         0.82926
C         34.31881        38.38742         1.09173
C         35.53906        40.50224         1.36608
C         34.32507        39.73788         1.42479
C         35.46977        41.92286         1.45956
C         34.25508        42.61498         1.64734
C         34.18808        44.01535         1.51120
C         36.82470        25.66485         0.41127
C         37.98971        27.83410         0.57676
C         36.83425        27.07053         0.23858
C         38.02124        29.22951         0.40466
C         36.83103        29.89510        -0.00262
C         38.06843        32.09938         0.13215
C         36.88392        31.33486        -0.28070
C         38.01634        33.45860        -0.13534
C         36.79207        34.22860        -0.08974
C         37.99831        36.27271         0.93680
C         36.82146        35.62450         0.37172
C         37.96782        37.64669         1.16568
C         36.78218        38.41656         1.03640
C         36.76083        39.81909         1.21230
C         39.19467        30.01169         0.71845
C         40.37825        32.07593         1.24661
C         39.23913        31.39692         0.62985
C         40.54366        33.40542         1.50621
C         39.67055        34.42775         0.95597
C         39.15319        35.55809         1.50569
O         28.06300        47.74337        -1.16652
O         19.52364        47.45192         1.25687
O         39.20968        34.14342        -0.34429
O         24.56426        25.73251         1.49586
O         15.19359        43.55283        -0.89882
O         30.24987        23.04908         0.53813
O         10.80663        40.17558         2.68652
O         14.09646        38.79917         3.20642
O         23.92215        47.66854        -1.72663
O         23.16276        19.80068        -2.43473
O         36.57869        31.70447        -1.70569
O         18.28596        44.66353        -0.89817
O         12.23923        33.27662         2.71809
O         32.31306        21.78444        -2.21436
O         32.07912        34.36014         1.85192
O         21.35496        24.73311         1.44890
O         30.20756        37.33938         3.21212
O         15.65796        32.18496         2.55665
O         16.42300        27.56385        -1.85538
O         29.70260        50.48678        -1.43606
O         11.09885        29.50727        -1.04529
O         27.07085        21.71280         0.62637
O         19.18855        34.65564        -0.29690
O         24.28689        43.61558         3.23991
O         26.46386        18.58496        -2.55261
O         26.17583        28.08452         1.59150
O         29.90252        29.77396        -2.03357
O         21.31675        29.64235        -1.04125
O         20.64793        19.50721         0.50080
O         28.81108        39.92397         3.83566
O         10.17737        35.98467        -0.27657
O         31.84488        18.42470        -1.63437
O         28.18331        15.63059         0.92632
O         27.30352        36.33699        -0.09230
O         30.20546        24.83240        -2.56300
O          8.04066        31.37090         2.67007
O         16.29817        40.20965         3.32124
O         29.01756        31.13748         1.37426
O         20.26945        27.04494        -1.38942
O         20.06488        38.37320         0.28693
O         19.90870        31.63391        -0.55174
O         19.49638        29.20471         2.10811
O         17.62626        18.75296        -2.80292
O         29.67467        44.55893         3.53287
O         18.42932        24.92913         1.11178
O         15.71626        24.02318        -2.43321
O         25.02006        37.52056         3.50123
O         24.48380         8.50145         0.81756
O         12.29262        27.28830        -1.75468
O         22.78208        58.86401        -3.64556
O         32.44358        27.18469         0.82322
O         24.14141        50.38429         0.48152
O         22.58035        12.17239         1.38258
O         26.45357        30.78587        -1.04030
O         21.52225        35.89090        -0.09044
O         14.94085        35.78158        -0.02941
O          8.60126        33.30294        -0.49558
O         21.61950        38.68295         3.43539
O         20.78686        48.81990        -2.04940
O         17.60753        16.15229        -2.72933
O         26.05863        11.17933         1.13808
O         23.28001         7.35688        -2.56051
O         34.14379        35.30511        -1.27781
O         35.45940        25.00099        -1.52269
O         28.57848        27.47401        -2.13890
O          8.50102        24.51620         0.47624
H          8.35805        24.71672        -0.47139
O         18.05324        40.15049         0.14498
H         18.97052        40.18336        -0.20336
O         29.02435        34.55340        -1.22432
H         28.45158        35.36375        -1.18887
O         26.81772        12.42220        -2.21068
H         27.20031        11.56597        -2.49812
O         20.80145        45.12653        -1.34110
H         21.04466        45.86174        -1.94339
O         16.67898        43.09806         3.18450
H         16.65374        42.28805         3.74747
O         10.22695        37.29035         3.14124
H         10.28596        38.19358         3.52848
O         34.51147        27.32245        -2.18170
H         35.18545        26.71115        -2.55776
O         21.63574        43.00429         3.62390
H         22.49186        43.40976         3.90652
O         15.05411        50.23868        -2.30631
H         15.56076        49.74852        -2.98588
O         26.21726        33.91745        -0.79247
H         26.94940        34.11551        -1.41661
O         26.20486        33.27771         2.77963
H         25.60846        32.77025         3.36862
O         19.01831        39.50853         3.61766
H         19.86315        39.23170         4.04616
O         21.90136        14.62114         1.42140
H         22.35348        13.94239         1.97860
O         33.44757        40.24191         3.53375
H         32.68228        40.59882         4.03449
O         32.16810        44.05241         3.94726
H         31.30359        43.90980         4.40460
O         18.42508         7.67853        -1.09097
H         18.56583         7.87552        -2.03955
O         31.78842        46.82535         3.70951
H         32.02119        45.90405         3.99094
O         25.97571        49.55532        -2.60815
H         26.71383        48.94888        -2.83108
O         34.17727        31.05447        -2.29918
H         35.08449        31.03820        -2.68486
O         22.02027        55.56440        -0.45307
H         21.25878        56.17785        -0.53833
O         28.40510        56.70781        -2.21729
H         28.58502        56.13091        -2.98718
O         34.23142        30.36156         1.28113
H         34.00586        29.56503         1.80744
O         18.37990        53.54220         0.11572
H         19.24634        53.98735         0.23482
O         24.43307        56.89782        -0.73618
H         23.58721        56.53075        -0.37133
H          4.86053        31.06249         1.86252
H          4.77524        33.48867         1.64358
H          7.59168        26.70926         1.56516
H          6.20020        28.81183         1.79556
H          5.93600        35.68764         1.43844
H          7.09623        37.89766         1.06291
H         10.10554        22.58747         0.54921
H          9.80130        24.95731         1.99877
H          8.44148        39.99599         0.45026
H          9.78640        42.16343         0.22952
H         12.46102        18.37543        -0.34410
H         11.25205        20.50709        -0.00688
H         11.00988        44.27122         0.08770
H         12.32085        46.36064        -0.37111
H         14.88440        14.09747        -0.71608
H         13.67226        16.26482        -0.55426
H         13.60881        48.42887        -0.84979
H         15.08479        50.61508        -0.28987
H         17.40208         9.82587        -0.58798
H         16.12643        11.95328        -0.73225
H         16.19642        52.65732        -1.46584
H         17.58847        54.40179        -2.71219
H         19.87868         5.68511        -1.14512
H         19.35983         7.91196         0.72056
H         19.00986        56.00942        -3.97076
H         20.44186        57.34786        -5.39273
H         23.29551         2.34675        -1.72866
H         21.13114         3.52549        -1.52202
H         24.27269        59.62269        -7.32003
H         21.99829        58.78293        -6.86545
H         25.45545         3.55841        -1.64314
H         26.72571         5.73676        -1.63662
H         27.14350        57.86903        -3.90181
H         26.17490        59.08909        -5.83198
H         27.95985         7.85934        -1.25550
H         29.22825         9.87266        -0.61743
H         29.12547        54.85273        -0.62562
H         27.04347        56.89809        -0.68658
H         30.45076        12.00914        -0.21995
H         31.65420        14.20234         0.02039
H         31.40538        50.89606         1.38335
H         30.13252        53.00634         0.52597
H         32.61626        16.30932         0.85338
H         34.01771        18.75720         0.91612
H         33.80122        46.67043         1.29953
H         32.51770        48.95082         2.25597
H         35.22203        20.76732         0.58305
H         36.34260        22.92079         0.91338
H         36.39377        42.50522         1.32452
H         35.07798        44.56816         1.17413
H         37.67913        25.18878         0.91461
H         38.89117        27.31010         0.92684
H         38.87742        38.14401         1.53333
H         37.70850        40.37387         1.27503
H         40.06998        29.47596         1.11684
H         41.11986        31.39167         1.69106
H         41.36372        33.71436         2.17299
H         39.54532        35.93955         2.46035
