         344
 CSIRO Nanostructure Databank - Neutral Graphene Oxide Data Set
C          1.20768         2.02179         0.05758
C          1.19532         3.45617         0.09509
C          2.38065         1.31997         0.11225
C          2.33831         4.18535         0.30549
C          1.16096         6.38344         0.40411
C          1.16997         7.76767         0.40266
C          2.35887         5.64192         0.31031
C          2.37755         8.49387         0.27433
C          1.16412        10.70417         0.38340
C          1.16761        12.02029         0.66742
C          2.40105         9.93549         0.26649
C          2.47136        12.74233         0.91424
C          1.23998        14.98380         0.71797
C          1.25616        16.37789         0.68720
C          2.43227        14.24741         0.72173
C          2.47690        17.07227         0.76674
C          2.51596        18.52427         0.75606
C          3.63807         2.00666         0.23890
C          3.62344         3.46687         0.63670
C          4.83541         1.34657         0.11027
C          4.85720         4.21104         0.18151
C          3.59061         6.34611         0.20581
C          3.60290         7.76906         0.16219
C          4.83854         5.61879         0.08770
C          4.84386         8.48373         0.00973
C          3.61243        10.61908         0.17038
C          3.57627        12.12886         0.05078
C          4.84810         9.91757         0.03306
C          4.91053        12.79873         0.28669
C          3.67395        14.93232         0.71487
C          3.68248        16.33780         0.80716
C          4.93556        14.19646         0.55199
C          4.95791        17.05694         1.14457
C          3.69267        19.20837         0.72529
C          4.96300        18.52348         0.78172
C          6.09263         2.05411         0.07426
C          6.06773         3.50233         0.04081
C          7.30189         1.38125        -0.03913
C          7.27992         4.21298        -0.19809
C          6.05155         6.33134        -0.16108
C          6.05492         7.77750        -0.18060
C          7.25678         5.62088        -0.32390
C          7.29143         8.49107        -0.31318
C          6.08009        10.63367        -0.06826
C          6.09515        12.07451         0.05308
C          7.30358         9.92029        -0.22495
C          7.34444        12.77262        -0.07404
C          6.16185        14.89516         0.53330
C          6.20459        16.32669         0.71373
C          7.37715        14.20558         0.15075
C          7.39245        17.02927         0.64753
C          6.15564        19.18606         0.66317
C          7.41867        18.47783         0.65338
C          8.54171         2.08188        -0.13488
C          8.52883         3.50415        -0.21698
C          9.77559         1.37719        -0.21552
C          9.75526         4.24128        -0.26455
C          8.48651         6.32757        -0.82705
C          8.51421         7.79922        -0.50536
C          9.76757         5.60875        -0.48439
C          9.74027         8.48851        -0.58683
C          8.54635        10.62333        -0.35557
C          8.52502        12.05491        -0.33069
C          9.77056         9.92168        -0.55447
C          9.75347        12.77251        -0.66918
C          8.57599        14.91181         0.07890
C          8.69239        16.27332         0.70330
C          9.77290        14.29802        -0.48016
C          9.88620        17.05531         0.23268
C          8.62097        19.15374         0.52559
C          9.86480        18.46214         0.29442
C         11.00626         2.04403        -0.20002
C         11.02145         3.52396         0.11886
C         12.23126         1.36303        -0.29043
C         12.27089         4.22398        -0.34573
C         10.99983         6.34661        -0.60932
C         10.96941         7.73797        -0.72095
C         12.26357         5.62213        -0.60046
C         12.19559         8.46756        -1.08749
C         11.03044        10.63080        -0.71280
C         11.04696        12.07496        -0.68156
C         12.23356         9.93370        -0.92443
C         12.22606        12.80932        -0.79852
C         11.07999        14.96033        -0.35336
C         11.07986        16.37275        -0.10753
C         12.26830        14.25227        -0.62029
C         12.28817        17.10436        -0.27427
C         11.06468        19.18331         0.04740
C         12.26194        18.52275        -0.19895
C         13.47337         2.04915        -0.28534
C         13.47428         3.50698        -0.35093
C         14.69682         1.36596        -0.31517
C         14.70975         4.20988        -0.41007
C         13.48802         6.29344        -0.80848
C         13.49145         7.70693        -1.23759
C         14.71559         5.61653        -0.58139
C         14.82470         8.44509        -1.38911
C         13.49006        10.61096        -1.02747
C         13.47068        12.08508        -1.11170
C         14.72607         9.93810        -1.07381
C         14.80406        12.84233        -1.04627
C         13.52274        14.95761        -0.54919
C         13.52706        16.38108        -0.39625
C         14.78194        14.26471        -0.63884
C         14.74591        17.09117        -0.26426
C         13.51891        19.30856        -0.48012
C         14.78552        18.51196        -0.24487
C         15.93919         2.04959        -0.26752
C         15.94570         3.50878        -0.22815
C         17.16161         1.37318        -0.36289
C         17.12817         4.21830        -0.03903
C         15.95657         6.34182        -0.48166
C         15.98364         7.74146        -0.70541
C         17.15494         5.64582        -0.12681
C         17.18406         8.43627        -0.55848
C         15.95723        10.65280        -0.97259
C         16.02582        12.05224        -0.84049
C         17.21589         9.86856        -0.94362
C         17.25483        12.75399        -0.55516
C         15.98442        14.90677        -0.37367
C         15.97581        16.32329         0.13327
C         17.24197        14.20338        -0.37505
C         17.25912        17.06390        -0.11278
C         15.99123        19.18727        -0.11703
C         17.25198        18.49063        -0.10370
C         18.39705         2.05946        -0.19395
C         18.34181         3.44718         0.40930
C         19.61398         1.44353        -0.39775
C         19.64064         4.20736         0.32174
C         18.37001         6.37086         0.07829
C         18.36551         7.77294        -0.10557
C         19.61990         5.65505         0.37298
C         19.59807         8.53299         0.05455
C         18.49539        10.61251        -0.73469
C         18.47314        12.07011        -0.51270
C         19.66402         9.86996        -0.22120
C         19.72666        12.74101        -0.30097
C         18.43429        14.90326        -0.18152
C         18.46723        16.34754        -0.16238
C         19.71301        14.18541         0.14262
C         19.70993        17.05214        -0.23053
C         18.47103        19.18079        -0.12896
C         19.70212        18.47961        -0.19130
C         20.86533         2.10416        -0.10829
C         20.83393         3.51196         0.29054
C         22.05047         1.42785        -0.21972
C         22.09903         4.16510         0.67680
C         20.80720         6.34867         0.54440
C         20.81032         7.82059         0.53352
C         22.07759         5.67982         0.86823
C         22.11882         8.54767         0.61983
C         20.97412        10.55579        -0.51132
C         20.92688        12.06066        -0.35642
C         22.15772        10.04499         0.33463
C         22.19496        12.75557        -0.18992
C         20.97265        14.92928        -0.24414
C         20.96655        16.36244        -0.34988
C         22.16743        14.21814        -0.22144
C         22.18023        17.08180        -0.55074
C         20.93785        19.17116        -0.17091
C         22.18083        18.53511        -0.35331
C         23.36678         1.96607         0.27760
C         23.41024         3.53876         0.22994
C         24.52534         1.47558        -0.59241
C         24.63650         4.18653         0.88956
C         23.36591         6.42292         0.83220
C         23.40408         7.79417         0.66314
C         24.59043         5.65650         1.30013
C         24.63328         8.55708         0.68906
C         23.48408        10.58389        -0.24525
C         23.39928        12.09195        -0.06958
C         24.68575         9.92151         0.39629
C         24.60242        12.85379         0.40878
C         23.40854        14.91710        -0.36849
C         23.38806        16.30261        -0.68193
C         24.64705        14.25241        -0.15431
C         24.64628        16.88481        -0.97587
C         23.33354        19.36226        -0.12380
C         24.64248        19.05569        -0.57275
C         25.78208         1.68802        -0.17280
C         25.82462         3.56489         1.08616
C         27.07533         1.65371        -0.92270
C         27.15791         4.22185         1.29470
C         25.89790         6.37317         1.05093
C         25.88450         7.88036         1.21528
C         27.08933         5.71324         1.06220
C         27.11586         8.49004         0.55469
C         25.90917        10.66554         0.41587
C         25.90440        12.10084         0.27258
C         27.15452         9.99402         0.65798
C         27.08315        12.80446         0.18582
C         25.84691        14.96493        -0.16873
C         25.85469        16.32801        -0.56137
C         27.11649        14.30949         0.32474
C         27.10018        17.14321        -0.23390
C         25.89570        19.37727        -0.10206
C         27.11175        18.65687        -0.66903
C         28.26313         2.40148        -0.29562
C         28.31133         3.59225         0.49274
C         29.47847         1.85384        -0.75319
C         29.55165         4.26725         0.63553
C         28.36948         6.42664         1.07891
C         28.38535         7.77923         0.95122
C         29.64450         5.63256         1.33504
C         29.63301         8.54212         1.18553
C         28.34870        10.69108         0.70684
C         28.36110        12.07465         0.20427
C         29.61380        10.04743         1.14084
C         29.64635        12.82274         0.05786
C         28.39379        14.96416        -0.18681
C         28.32202        16.37589        -0.77764
C         29.59094        14.30384        -0.14548
C         29.60880        17.12625        -0.58211
C         28.40349        19.23042        -0.16120
C         29.60348        18.49878        -0.22061
C         30.70632         2.44051        -0.49183
C         30.74880         3.68309         0.15936
C         32.02364         4.35810         0.31006
C         30.88510         6.42546         0.92601
C         30.89514         7.80440         0.93301
C         32.08571         5.67207         0.64020
C         32.02818         8.59853         0.47964
C         30.95968        10.80411         1.10853
C         30.91115        12.20940         0.52204
C         32.03173         9.94937         0.45533
C         32.04066        12.96436         0.46356
C         30.87099        14.97074        -0.36440
C         30.87756        16.39406        -0.91943
C         32.02766        14.31208        -0.05342
C         32.11396        17.17224        -0.58179
C         30.85197        19.14837         0.06962
C         32.06555        18.46996        -0.12109
O         12.66622         7.98034        -2.42135
O         22.03589         4.72762         2.01769
O         14.13675        12.59226        -2.32306
O          9.57704        13.68945        -1.80194
O         18.10642        10.16483        -2.09500
O         29.09349        12.11994        -1.13359
O         29.49798         9.33072         2.43049
O         21.32149         8.31676         1.84627
O         24.63313        18.11478        -1.64146
O         25.95255         2.16188         1.14400
O         18.14024         3.23925         1.85537
H         18.94143         2.78979         2.20034
O         22.05844        10.70411         1.62709
H         21.55653        10.08851         2.21641
O          8.94276        16.03554         2.15109
H          8.14754        15.58250         2.50681
O         27.18203        17.21024         1.20344
H         27.17758        16.29186         1.58170
O         23.46728         1.51040         1.63614
H         24.41160         1.57841         1.91044
O         23.49919         3.92922        -1.16906
H         24.30762         3.52628        -1.55499
O          8.38369         6.27119        -2.30587
H          8.39657         5.32406        -2.56136
O          3.69537         3.46977         2.11117
H          4.51657         2.99449         2.36088
O         30.86502        16.21777        -2.40208
H         30.96275        17.11281        -2.79385
O         24.47096         5.63655         2.77604
H         23.56699         5.27158         2.96106
O         11.06831         3.59765         1.59354
H         11.86225         3.09826         1.88176
O         27.15021        18.76477        -2.10447
H         26.29038        18.41757        -2.44164
O         24.42185        13.03238         1.87145
H         23.94641        12.23800         2.20451
O         19.73881        14.12560         1.61908
H         20.56128        13.65389         1.87419
O          5.00747        17.03377         2.62594
H          5.77602        17.58234         2.89399
O          3.22201        12.42952        -1.33382
H          3.91909        12.05455        -1.91190
O         29.79250         5.40972         2.75884
H         29.03041         4.84067         3.03858
O         21.15675        10.23615        -1.92742
H         20.28615        10.34911        -2.37387
O         27.12062        14.52830         1.79366
H         26.27730        14.14312         2.13525
O          2.84513        12.51439         2.30186
H          2.18706        12.96259         2.87245
O         31.40162        10.99409         2.47859
H         31.00290        10.25689         3.00246
O         25.93157         8.11905         2.64305
H         25.31203         7.47825         3.06488
O         15.88134        16.19881         1.61709
H         16.01741        17.09739         1.98732
O         13.53968        20.53488         0.25747
H         13.49887        20.31895         1.21130
O         28.10787        16.19053        -2.20489
H         28.97781        15.92002        -2.59047
O         27.48605         4.02668         2.71336
H         26.76422         4.44528         3.23232
O         23.69023        10.29477        -1.64340
H         22.87689        10.53529        -2.14725
O         15.17219         8.38589        -2.80044
H         14.33119         8.51191        -3.29883
O         26.94426         8.22954        -0.87542
H         27.50522         8.85661        -1.37842
O         26.82600         2.21954        -2.22053
H         27.67730         2.26675        -2.70310
H          0.25425         1.49245        -0.07919
H          0.23731         3.96162        -0.09342
H          2.38506         0.22645        -0.00881
H          0.20080         5.86053         0.51047
H          0.21375         8.29662         0.50552
H          0.20204        10.18709         0.26162
H          0.21000        12.54132         0.81223
H          0.26873        14.47052         0.71834
H          0.31110        16.93821         0.64620
H          1.55985        19.06652         0.71195
H          4.84550         0.25713        -0.05059
H          3.69546        20.30529         0.63560
H          7.31303         0.28098        -0.03057
H          6.16724        20.27653         0.50998
H          9.75648         0.27939        -0.29673
H          8.62394        20.25397         0.50993
H         12.23093         0.26540        -0.37654
H         11.05358        20.28268         0.08222
H         14.69671         0.26575        -0.34056
H         13.50205        19.60000        -1.56939
H         17.17191         0.29499        -0.58449
H         15.99027        20.28697        -0.10996
H         19.64624         0.39736        -0.73907
H         18.47671        20.28057        -0.11545
H         22.03098         0.37145        -0.52943
H         20.92197        20.26138        -0.02147
H         24.33015         1.12418        -1.61518
H         23.16968        20.29682         0.43470
H         27.39732         0.57749        -1.05808
H         26.01177        20.04707         0.76196
H         29.44926         0.91790        -1.33208
H         28.43347        20.27091         0.19866
H         31.63529         1.96901        -0.84114
H         32.93800         3.79642         0.07025
H         33.06108         6.17733         0.66912
H         32.90566         8.06766         0.08189
H         32.92436        10.46908         0.07528
H         33.00098        12.55240         0.80423
H         32.99888        14.81266        -0.16661
H         33.09084        16.71422        -0.79043
H         30.84829        20.19752         0.39429
H         33.00763        18.99982         0.08391
