         228
 CSIRO Nanostructure Databank - Neutral Graphene Oxide Data Set
C        -11.06626         0.66665         1.02703
C         -9.85319         1.41860         0.86960
C         -8.61259         0.69491         0.77507
C         -7.39072         1.43607         0.58659
C         -6.14849         0.73150         0.36397
C         -4.95756         1.44439        -0.01479
C         -3.74040         0.70859        -0.21424
C         -2.52347         1.40997        -0.68835
C         -1.19648         0.73646        -0.68425
C         -0.00519         1.45733        -0.87172
C          1.25464         0.75351        -0.98325
C          2.47396         1.41148        -1.01442
C          3.72509         0.67891        -0.91235
C          4.89516         1.34562        -0.44230
C          6.08865         0.63495        -0.25850
C          7.24982         1.27726         0.42561
C          8.57687         0.60435         0.42209
C          9.82126         1.39360         0.64999
C         11.01238         0.60113         0.91265
C         -9.85144         2.82172         0.84633
C         -8.64932         3.55767         0.71667
C         -7.42899         2.83781         0.56734
C         -6.13219         3.59672         0.57563
C         -4.96875         2.86462        -0.05427
C         -3.79036         3.61803        -0.33020
C         -2.57024         2.90245        -0.79165
C         -1.27351         3.64799        -0.90747
C          0.01958         2.90880        -0.87222
C          1.20753         3.60660        -0.93677
C          2.51530         2.90206        -1.29169
C          3.74852         3.59003        -0.68523
C          4.71429         2.73393         0.15505
C          6.00815         3.50825         0.36645
C          7.26732         2.77026         0.75957
C          8.50712         3.46233         0.17427
C          9.77683         2.75305         0.61249
C         -8.66205         5.00369         0.72176
C         -7.52891         5.75624         0.44661
C         -6.29914         5.01139         0.06586
C         -5.03829         5.77290        -0.17903
C         -3.78266         5.00630        -0.19634
C         -2.52651         5.76588        -0.14300
C         -1.28070         5.11212        -0.64159
C          0.01703         5.81002        -0.29959
C          1.19837         5.08371        -0.92226
C          2.50804         5.86907        -0.68375
C          3.74179         5.05956        -0.42390
C          4.66323         5.55207         0.71105
C          6.00188         4.85856         0.54814
C          7.26578         5.60334         0.62534
C          8.46009         4.94512         0.47657
C         -7.48667         7.18129         0.38243
C         -6.30986         7.90745         0.13995
C         -5.04018         7.24289        -0.03950
C         -3.85848         7.96344        -0.08299
C         -2.55794         7.25421        -0.06631
C         -1.34345         8.01215        -0.50612
C         -0.05662         7.28470        -0.70546
C          1.25248         8.08475        -0.66233
C          2.38597         7.21448        -0.16040
C          3.50283         7.88915         0.49733
C          4.74075         7.07594         0.82758
C          6.04682         7.77095         0.72194
C          7.21637         7.05347         0.69054
C         -6.28697         9.34852         0.14464
C         -5.12178        10.05947         0.02119
C         -3.84008         9.40628        -0.08802
C         -2.63799        10.11984        -0.17282
C         -1.34538         9.48271        -0.24625
C         -0.14992        10.12089        -0.03006
C          1.10945         9.32356         0.25644
C          2.42059        10.07972         0.21344
C          3.58029         9.37309         0.33347
C          4.90364         9.96053         0.43320
C          6.03274         9.21846         0.62319
C        -11.04860        -0.70068         1.09315
C         -9.81326        -1.43571         1.02996
C         -8.59775        -0.70454         0.89201
C         -7.28694        -1.42916         1.05015
C         -6.11291        -0.68028         0.46291
C         -4.92077        -1.37217         0.23826
C         -3.71172        -0.67255        -0.03794
C         -2.39308        -1.42604         0.00434
C         -1.18236        -0.68781        -0.55885
C         -0.04758        -1.41871        -0.89058
C          1.19658        -0.70238        -1.24225
C          2.51501        -1.45926        -1.40289
C          3.75630        -0.73505        -1.05483
C          4.95922        -1.44799        -0.84132
C          6.14903        -0.75786        -0.53699
C          7.45660        -1.48429        -0.53348
C          8.72896        -0.75558        -0.17254
C          9.89783        -1.52731         0.29694
C         11.02818        -0.75878         0.78537
C         -9.80161        -2.84587         1.08433
C         -8.61359        -3.60219         0.87866
C         -7.35685        -2.89542         0.67808
C         -6.21025        -3.58853         0.38861
C         -4.87642        -2.86706         0.43971
C         -3.81383        -3.52506        -0.42578
C         -2.53275        -2.74736        -0.76112
C         -1.24423        -3.54604        -0.64106
C         -0.06398        -2.87198        -0.81390
C          1.18883        -3.64449        -1.02347
C          2.49008        -2.96825        -1.33249
C          3.74541        -3.72336        -1.06949
C          4.94506        -2.93050        -0.70936
C          6.21355        -3.66656        -0.42951
C          7.49769        -2.94402        -0.39233
C          8.64889        -3.63230        -0.02215
C          9.86169        -2.90399         0.28167
C         -8.62208        -5.00360         0.89014
C         -7.45166        -5.77103         0.59572
C         -6.22853        -5.04210         0.27356
C         -5.06413        -5.73690         0.00032
C         -3.84676        -5.00975        -0.41999
C         -2.56249        -5.74373        -0.28833
C         -1.26961        -5.00079        -0.37332
C         -0.05306        -5.80587        -0.58824
C          1.22453        -5.07323        -0.58308
C          2.48405        -5.83427        -0.74013
C          3.74777        -5.08758        -0.98012
C          4.99059        -5.89448        -0.81182
C          6.27636        -5.15105        -0.59902
C          7.42864        -5.80015         0.07520
C          8.57046        -5.05567         0.27875
C         -7.44340        -7.16641         0.67338
C         -6.33325        -7.96169         0.14480
C         -5.05514        -7.18534        -0.23734
C         -3.77238        -7.92300        -0.29263
C         -2.56199        -7.21380        -0.39563
C         -1.33731        -7.89402        -0.49533
C         -0.07870        -7.16769        -0.57413
C          1.14107        -8.03430        -0.76270
C          2.50356        -7.34087        -0.99136
C          3.63514        -7.86630        -0.09834
C          4.85217        -7.23299        -0.16710
C          6.02581        -7.79767         0.49547
C          7.24765        -7.15344         0.53014
C         -6.13443        -9.39599         0.43179
C         -4.96126       -10.03217         0.16701
C         -3.74240        -9.33610        -0.21843
C         -2.50290       -10.01750        -0.38604
C         -1.31072        -9.31053        -0.55460
C          0.07331        -9.86266        -0.81170
C          1.12656        -9.27249         0.10171
C          2.20023        -9.78191         0.72462
C          3.38414        -8.87431         1.00916
C          4.64221        -9.64085         1.33171
C          5.86193        -9.11177         1.10568
O          8.41575         3.31725        -1.27357
H          9.18337         3.77070        -1.67957
O          8.37660        -0.93088        -1.57031
O          1.68493        -3.54969        -2.40647
O         -0.88710         7.59952        -1.84853
O          4.40596         4.52713        -1.60715
O         -2.63935        -2.34304        -2.14481
H         -3.05691        -3.08444        -2.64063
O          3.05149        -8.07128         2.19133
H          2.59301        -7.25300         1.89447
O         -1.88825        -5.29491         0.95228
O          1.58080         8.54269        -1.98528
H          1.47915         7.77788        -2.59595
O         -4.21104        -4.24428        -1.63752
O         -4.41344        -3.05910         1.82655
H         -5.07174        -2.60507         2.40431
O          7.36397         2.91757         2.18820
H          6.60878         2.43395         2.58739
O         -2.80802         2.08154        -1.97906
O         -5.91680         5.27430        -1.30139
O         -1.34245         4.64338        -2.00558
O          4.16515         2.53407         1.44337
O         -2.34002         6.45881         1.16684
O          1.86854         5.73979        -2.01671
O          5.33677        -3.28574         0.69863
O         -6.01459        -7.61545        -1.25070
O          0.68760        -8.98192        -1.87741
O          4.06544         5.11535         1.94108
H          4.07785         4.10862         1.96953
O          7.69803         0.50694         1.60156
O          2.63396         3.00717        -2.73054
H          3.06916         3.87165        -2.92112
O          2.87213        -7.52436        -2.36781
H          2.42652        -8.33693        -2.69464
O         -5.77035         3.76385         1.99550
H         -5.76022         2.87453         2.40951
O         -6.99433        -1.44772         2.50951
H         -7.79490        -1.79773         2.95770
O          2.00925        -5.44735         0.61680
O         -2.07921        -1.67340         1.39153
H         -2.80335        -2.22969         1.77974
O          0.24763         5.74412         1.12100
H         -0.54741         6.11873         1.57725
O          1.79157        -0.98501        -2.56610
O          3.86622         7.54282         1.89306
O          0.90648         8.82773         1.61269
H          1.76407         8.51497         1.97648
O          5.95339        -5.71195        -1.90823
H         11.94741        -1.31130         1.03352
H         11.92499         1.12705         1.23136
H         10.68769         3.34455         0.80023
H          9.39824         5.52278         0.43836
H          8.17251         7.59822         0.63943
H          7.00543         9.73145         0.67068
H          4.98216        11.05492         0.35418
H          2.43333        11.17757         0.13762
H         -0.13947        11.20336         0.17428
H         -2.67201        11.21851        -0.11023
H         -5.15017        11.15906         0.02478
H         -7.24163         9.88420         0.25382
H         -8.41615         7.73935         0.57553
H         -9.61785         5.51133         0.92345
H        -10.80523         3.36233         0.94023
H        -12.01949         1.21121         1.09253
H        -11.98791        -1.26206         1.20236
H        -10.75337        -3.38154         1.21740
H         -9.56474        -5.53161         1.09871
H         -8.31500        -7.68875         1.09694
H         -6.98042        -9.96351         0.84850
H         -4.88732       -11.11500         0.34979
H         -2.49428       -11.11812        -0.37319
H          0.11733       -10.94586        -1.06499
H          2.21274       -10.82131         1.08851
H          4.54251       -10.62054         1.82334
H          6.76952        -9.65693         1.40742
H          8.09810        -7.65385         1.01909
H          9.44580        -5.52602         0.75254
H         10.73433        -3.47405         0.63592
