         234
 CSIRO Nanostructure Databank - Neutral Graphene Oxide Data Set
C          1.20588         2.13700        -0.96997
C          1.17330         3.55538        -0.80411
C          2.38915         1.46829        -1.12568
C          2.33524         4.29182        -0.76423
C          1.09161         6.51255        -0.34502
C          1.05386         7.71524         0.24857
C          2.36206         5.81504        -0.77580
C          2.27881         8.41132         0.74040
C          1.10174        10.58485         1.41436
C          1.15738        11.88468         1.79866
C          2.28788         9.92660         0.85137
C          2.36997        12.65432         1.68047
C          1.19638        15.70876         0.94829
C          1.24122        16.85108         0.15694
C          2.35207        14.93965         1.14270
C          2.48403        17.30977        -0.31867
C          2.55233        18.52449        -1.11071
C          3.64550         2.17279        -1.11228
C          3.60693         3.61285        -0.89558
C          4.84263         1.47450        -1.22812
C          4.79716         4.30890        -0.66970
C          3.60358         6.36685        -0.10578
C          3.57288         7.70813         0.50950
C          4.79564         5.68379        -0.19907
C          4.84329         8.45340         0.61827
C          3.62053        10.68675         0.94362
C          3.60361        12.15723         1.33545
C          4.82641         9.80672         1.04806
C          4.76814        13.08014         1.13894
C          3.58928        15.24610         0.51552
C          3.64756        16.52977        -0.09167
C          4.78968        14.40325         0.61283
C          4.95880        17.13548        -0.34955
C          3.72223        19.04830        -1.54769
C          5.00827        18.49747        -1.10014
C          6.13141         2.15398        -1.27441
C          6.07845         3.63983        -0.89463
C          7.42696         1.42992        -1.18088
C          7.28624         4.21356        -0.24256
C          6.06379         6.32806         0.16434
C          6.05399         7.73965         0.54631
C          7.25751         5.65405         0.09626
C          7.29192         8.42719         0.71126
C          6.04061        10.31530         1.50746
C          6.04275        12.53366         1.42801
C          7.27701         9.77695         1.12544
C          7.27726        12.95132         0.95390
C          6.06567        14.94393         0.14615
C          6.12600        16.25601        -0.38991
C          7.31512        14.21190         0.30121
C          7.32294        16.76916        -1.04188
C          6.25415        18.89335        -1.74247
C          7.42463        18.16778        -1.53493
C          8.61537         2.08413        -0.94224
C          8.56978         3.46626        -0.37567
C          9.91005         1.45560        -1.04689
C          9.81030         4.29474        -0.43449
C          8.51337         6.23364         0.71007
C          8.55276         7.73584         0.66041
C          9.78209         5.69399         0.07721
C          9.75424         8.40277         0.77405
C          8.46023        10.62870         0.88152
C          8.52886        12.12480         1.27387
C          9.77857         9.86694         0.68636
C          9.77521        12.76074         0.66924
C          8.59338        14.81541         0.03900
C          8.65259        16.01865        -0.78691
C          9.80908        14.22787         0.44014
C          9.90796        16.74872        -0.90571
C          8.69406        18.67702        -1.89083
C          9.91475        18.03569        -1.53886
C         11.11656         2.12120        -0.82783
C         11.11794         3.58309        -0.56140
C         12.40023         1.51615        -0.96357
C         12.33339         4.22691         0.02398
C         11.03765         6.35444         0.52690
C         11.02611         7.69198         0.86946
C         12.24052         5.54475         0.73565
C         12.26714         8.41115         1.12547
C         11.05864        10.55650         0.92605
C         11.06686        12.01605         0.69722
C         12.24489         9.86854         1.11505
C         12.29619        12.80709         1.08446
C         11.07442        14.83340         0.15505
C         11.09878        16.14198        -0.45534
C         12.30997        14.16017         0.40670
C         12.34928        16.78298        -0.69968
C         11.15324        18.68857        -1.71948
C         12.36683        18.08703        -1.31184
C         13.60051         2.16509        -0.61253
C         13.57209         3.39078         0.28809
C         14.85732         1.62011        -0.91347
C         14.76645         4.35489         0.04573
C         13.51200         6.24686         1.19663
C         13.48781         7.73036         1.22675
C         14.83834         5.47108         1.10865
C         14.72650         8.46701         1.37209
C         13.50780        10.60435         1.15742
C         13.55917        11.99111         0.97844
C         14.73219         9.85149         1.33091
C         14.81972        12.68091         0.77016
C         13.54200        14.77661         0.13409
C         13.56281        16.12265        -0.38038
C         14.80035        14.08223         0.34509
C         14.79959        16.80367        -0.57038
C         13.60312        18.74236        -1.49964
C         14.81252        18.13245        -1.11111
C         16.08448         2.28476        -0.63167
C         16.08531         3.63502        -0.10089
C         17.31054         1.67559        -0.97083
C         17.24810         4.34676         0.08531
C         16.04927         6.34912         0.89126
C         16.01017         7.70621         1.47457
C         17.23945         5.75080         0.52695
C         17.32178         8.44789         1.63589
C         15.91663        10.68629         1.77950
C         16.00558        11.99596         1.01329
C         17.26942         9.94517         1.87384
C         17.30788        12.60930         0.72326
C         15.99725        14.78283         0.18946
C         16.02547        16.16977        -0.21573
C         17.28116        14.06575         0.29538
C         17.23711        16.89580        -0.33577
C         16.05152        18.81877        -1.23673
C         17.23742        18.22239        -0.83140
C         18.53904         2.34126        -0.79678
C         18.53146         3.67163        -0.16853
C         19.75514         1.82662        -1.29253
C         19.76349         4.54779        -0.39895
C         18.44725         6.55692         0.44926
C         18.50515         7.86283         0.92979
C         19.57597         6.02263        -0.34035
C         19.73372         8.62295         0.81556
C         18.57924        10.67827         1.79238
C         18.59121        12.06706         1.25478
C         19.86331         9.80291         1.76061
C         19.77443        12.75131         1.03798
C         18.52824        14.85117         0.49711
C         18.51825        16.30341         0.11236
C         19.80270        14.10261         0.50030
C         19.78127        16.88496        -0.39063
C         18.51177        19.02828        -0.81113
C         19.76176        18.18348        -0.94076
C         20.89747         2.62658        -1.44994
C         20.90025         3.98954        -1.13686
C         22.02219         4.85130        -1.39092
C         20.81869         6.87075        -0.57697
C         20.87288         8.12993         0.19216
C         22.03848         6.16740        -1.03443
C         22.17203         8.72675         0.44871
C         21.13347        10.62468         1.58314
C         21.08734        12.12596         1.33709
C         22.32270         9.87382         1.14924
C         22.29297        12.80576         0.83461
C         20.97830        14.74097         0.12606
C         20.96914        16.10832        -0.40368
C         22.23307        14.02465         0.25536
C         22.12861        16.67945        -0.97413
C         20.92797        18.71387        -1.50217
C         22.10311        17.95697        -1.52203
O         18.47810        15.88770         1.53315
O         19.52692         3.89040         0.88424
O          2.90031        10.52334        -0.33328
O         17.93687        10.43539         3.08904
O          6.24709         3.23497        -2.28957
O         10.39583        12.26556        -0.57961
O         12.63332         5.56583         2.15230
O          8.96743        10.35227        -0.44516
O          5.14393        18.40181         0.37054
O          6.03765        11.45025         2.31902
O          2.25477        13.97227         2.14737
O          9.67465         5.43008        -1.35898
O         19.74843         6.75910        -1.58811
O         17.44817        13.01279        -0.70623
O          7.89723        15.85099        -2.03229
O         16.74626         7.71535         2.76135
O          7.84649         3.44412         0.91721
O          2.88580         7.70808         1.86854
O         21.29803        11.55739         2.68550
O         12.06245         4.32961        -1.40734
O         20.00814         9.17595         3.05321
H         20.10070         9.89284         3.71739
O         13.54783         2.86808         1.62257
H         13.81750         3.58186         2.25218
O          8.50590         5.84615         2.11295
H          8.27690         4.88503         2.14145
O         15.52999        11.06726         3.13747
H         16.35562        11.06239         3.67956
O          2.50558         6.17995        -2.19529
H          3.27669         5.68807        -2.55153
O         12.11092        13.05971         2.52077
H         12.98920        13.25069         2.91315
O         14.55328         5.06034        -1.20014
H         14.13243         4.45490        -1.84885
O          8.72709        12.17885         2.70629
H          7.87923        11.91610         3.13159
O         18.44017        20.04883        -1.80160
H         19.14634        20.70353        -1.63409
O         15.08590         4.86367         2.40197
H         15.21487         5.58057         3.05964
H          0.25509         1.58609        -0.98782
H          0.19427         4.04547        -0.71148
H          2.39840         0.37898        -1.27562
H          0.14213         6.06437        -0.67527
H          0.07949         8.19414         0.43449
H          0.19957         9.98649         1.60576
H          0.28005        12.37842         2.23804
H          0.26610        15.40658         1.44636
H          0.33255        17.44152        -0.02515
H          1.59871        18.98334        -1.41145
H          4.82496         0.37402        -1.22001
H          3.73218        19.90150        -2.24167
H          7.43917         0.36769        -1.47076
H          6.28041        19.82310        -2.33024
H          9.93862         0.38857        -1.31631
H          8.74471        19.68363        -2.33254
H         12.45917         0.50699        -1.40155
H         11.17768        19.68477        -2.18565
H         14.90536         0.65250        -1.43755
H         13.62270        19.74547        -1.95044
H         17.30305         0.67425        -1.42706
H         16.06769        19.84382        -1.63218
H         19.77238         0.79552        -1.67459
H         18.56656        19.52656         0.20988
H         21.78896         2.19016        -1.92402
H         22.92854         4.39763        -1.81965
H         22.96082         6.74449        -1.18813
H         23.06778         8.20120         0.09328
H         23.32324        10.27679         1.35577
H         23.26649        12.32773         1.00628
H         23.16759        14.50249        -0.06457
H         23.06853        16.11468        -1.01343
H         20.92280        19.72489        -1.93348
H         23.01478        18.37605        -1.96955
