         320
 CSIRO Nanostructure Databank - Neutral Graphene Oxide Data Set
C         30.11871        31.78356         0.24040
C         30.16613        32.98817         0.50596
C         30.97624        35.85495        -1.09512
C         31.29886        36.96370        -1.57129
C         30.67533        40.14517        -1.38469
C         30.59239        41.43829        -1.46293
C         32.52177        28.95191        -0.31744
C         31.43099        29.54427        -0.26071
C         32.58893        31.59162         0.54913
C         31.01379        30.66503         0.60248
C         32.53875        33.10102         0.23787
C         31.35056        33.81010         0.94749
C         32.70129        35.98375         0.69547
C         31.33496        35.33997         0.82596
C         32.77868        37.44850         0.74852
C         32.10161        38.09274        -1.77004
C         32.88369        40.17556        -0.51537
C         31.84829        39.41734        -1.21920
C         32.67161        41.67379        -0.23167
C         31.57053        42.33127        -1.13767
C         32.84328        44.40725        -0.94564
C         31.85784        43.71534        -1.26083
C         35.35567        27.37440        -0.24534
C         35.05382        28.75626        -0.12081
C         33.87098        29.42097        -0.13492
C         35.07395        31.64841        -0.24546
C         33.85693        30.88209         0.22896
C         35.07255        33.18132        -0.22598
C         33.89530        33.74716         0.61371
C         35.16515        35.93847         0.75046
C         33.84406        35.25454         0.49213
C         35.24497        37.36378         0.20891
C         33.94911        38.12479         0.38550
C         35.33362        40.24165         0.13287
C         33.98244        39.52210         0.05875
C         35.10102        41.71466         0.58294
C         34.05725        42.40440        -0.34828
C         35.36747        44.46894        -0.55649
C         34.00547        43.97603        -0.06876
C         35.72968        47.57690         0.84970
C         37.64952        27.25801         0.42254
C         36.34475        26.64421        -0.09047
C         37.63728        28.71672        -0.02209
C         36.36956        29.48922         0.26687
C         37.64171        31.64804        -0.33463
C         36.36903        30.91029        -0.31468
C         37.69293        33.01307         0.30000
C         36.40461        33.81970         0.20388
C         37.70718        36.00301         0.34757
C         36.43136        35.15954         0.41104
C         37.64246        37.20993         1.30127
C         36.38763        38.05222         0.97922
C         37.68732        40.27399         1.22956
C         36.37670        39.54351         1.01934
C         37.71650        41.75854         0.99193
C         36.43116        42.48556         0.69422
C         37.69109        44.57144         0.31700
C         36.53977        43.85982         0.15312
C         37.66123        46.00046         0.01002
C         36.65486        46.81461         0.44156
C         40.15690        24.50249         0.59836
C         39.10272        25.14117         0.51496
C         40.22420        27.25552         0.25802
C         38.86259        26.51734        -0.09933
C         40.20768        28.72562        -0.17332
C         38.91032        29.48351         0.14101
C         40.18414        31.57796        -0.39470
C         38.86754        30.85671        -0.68663
C         40.19238        33.03750        -0.09876
C         38.89924        33.82341        -0.23016
C         40.18941        35.85614         0.53103
C         39.00438        35.20623         0.40335
C         40.26385        37.28187         1.00190
C         38.98389        38.01489         1.27875
C         40.22625        40.20099         0.63871
C         38.98561        39.53016         1.24363
C         40.20454        41.73963         0.72142
C         39.03168        42.43366         0.76935
C         40.20219        44.66629         0.37377
C         38.97998        43.95915         0.91788
C         40.07656        46.15799         0.27109
C         38.86734        46.49347        -0.72283
C         40.02090        48.66134        -1.04083
C         39.01788        47.94375        -1.00386
C         42.80495        24.42543         0.05912
C         41.42878        24.90482        -0.01702
C         42.70021        27.18116        -0.54577
C         41.42325        26.43846        -0.26183
C         42.70257        28.65627        -0.14697
C         41.37804        29.36465        -0.44571
C         42.74692        31.52750        -0.30594
C         41.47026        30.84815        -0.82710
C         42.68275        32.98165         0.17987
C         41.48789        33.78385        -0.40553
C         42.65749        35.73305         0.96554
C         41.50730        35.31705         0.01197
C         42.69801        37.25781         1.11158
C         41.57744        38.02945         0.96236
C         42.75964        40.36006         0.80287
C         41.52084        39.57237         1.23264
C         42.81038        41.84011         1.19404
C         41.51453        42.47846         0.59758
C         42.67429        44.81515         0.94373
C         41.50184        43.97776         0.38599
C         42.69014        46.27361         0.39023
C         41.39040        46.91843        -0.01611
C         42.64564        48.92518        -0.74889
C         41.41691        48.11446        -1.09329
C         43.82292        25.02846        -0.29904
C         45.35689        27.14716        -0.85832
C         44.02906        26.42384        -0.70204
C         45.25856        28.64556        -0.18867
C         43.96740        29.38492        -0.67990
C         45.19082        31.51416         0.21340
C         43.92319        30.84645        -0.22916
C         45.19219        33.01012         0.35230
C         43.97209        33.75161        -0.14688
C         45.15076        35.83892         0.47078
C         43.96519        35.16865         0.42197
C         45.32623        37.05718         1.34935
C         43.97061        37.75926         1.75699
C         45.23688        40.40891         0.67765
C         43.89428        39.80736         0.28610
C         45.19836        41.89959         0.36921
C         44.03869        42.56206         0.62250
C         45.14271        44.73437        -0.07207
C         44.10916        44.07639         0.87248
C         45.10854        46.22349        -0.25761
C         43.96252        46.92071        -0.08566
C         43.66284        48.26017        -0.48348
C         47.67851        27.31963        -0.04204
C         46.61744        26.69977        -0.19262
C         47.87247        28.78023         0.24240
C         46.55260        29.43583        -0.52335
C         47.65717        31.58965        -0.18968
C         46.49922        30.87716        -0.09766
C         47.70803        33.00117         0.27002
C         46.44903        33.77479         0.21254
C         47.67935        35.90177        -0.06764
C         46.41671        35.13964         0.17079
C         47.61901        37.41673        -0.26577
C         46.66525        38.18021         0.70165
C         47.76703        40.40299         0.18959
C         46.41598        39.62264         0.06510
C         47.62305        41.79945        -0.45875
C         46.54921        42.61759         0.35976
C         47.82896        44.76245        -0.27637
C         46.44912        44.02061        -0.22203
C         47.49699        46.12852        -0.84014
C         46.40395        46.67879        -0.65517
C         50.46416        29.27996         0.39263
C         49.14602        29.48415        -0.20255
C         50.16218        31.80284        -0.65035
C         48.94871        30.96080        -0.58986
C         50.24196        33.04196        -0.07235
C         49.00284        33.72512         0.37654
C         50.26665        35.97675         0.30024
C         48.98883        35.19650         0.06420
C         50.17481        37.42113        -0.21485
C         48.99378        38.13302        -0.21790
C         50.17284        40.34062        -0.29997
C         48.98103        39.59589        -0.28743
C         50.15974        41.81885        -0.37938
C         48.96806        42.50808        -0.55631
C         50.23642        44.52148        -0.99360
C         48.85100        43.96643        -1.09326
C         51.56377        29.63724         0.80482
C         52.84157        31.65013         0.87932
C         52.79981        30.29856         1.12928
C         52.48761        32.81306         0.51049
C         51.52369        33.71669         0.15145
C         52.65451        36.10536         0.12595
C         51.52509        35.16964        -0.25676
C         52.58402        37.33537         0.04543
C         51.47454        38.14789        -0.58566
C         52.49828        40.47749        -0.27954
C         51.43549        39.61490        -0.29788
C         52.58758        41.75854        -0.29044
C         51.46897        42.55419        -0.41457
C         51.27831        43.95035        -0.64706
O         45.52052        44.07669        -1.34310
O         38.41553        40.03454         2.47625
O         41.75509        43.04420        -0.73336
O         35.88283        38.78965         2.14515
O         43.21045        26.78122        -1.85233
O         49.08297        29.88809        -1.59136
O         36.94722        42.43075         2.07070
O         35.52453        31.09282        -1.53485
O         48.40690        35.35303        -1.25911
O         48.39700        33.21152         1.59179
O         43.91460        38.46991         2.73092
O         41.99194        47.23486         1.25319
O         44.65247        44.16741         2.17588
O         45.08933        32.16972         1.53935
O         39.79008        37.49535         2.37784
O         33.44009        31.16315         1.62164
O         41.14737        25.45999        -1.31969
O         30.45477        35.92982         1.51257
O         35.51089        45.13763        -1.56381
O         45.81703        36.57548         2.50165
O         45.63710        27.18150        -2.25158
H         44.78231        27.09098        -2.73732
O         47.71493        29.02882         1.63784
H         48.48945        28.66788         2.11900
O         42.33571        44.93911         2.32690
H         43.20220        44.83601         2.81474
O         48.33847        44.89071         1.02551
H         47.67925        45.32501         1.60453
O         43.93327        29.37680        -2.12012
H         44.84612        29.60875        -2.43259
O         30.80386        30.23755         1.89235
H         30.52816        30.99225         2.45074
O         44.17584        33.79536        -1.58211
H         43.31498        33.62346        -2.03269
O         39.57468        46.62008         1.53361
H         40.32072        46.57751         2.17844
O         37.94823        32.82621         1.75642
H         37.12892        32.46981         2.16735
O         37.61986        27.21108         1.86079
H         37.69834        26.26626         2.12468
O         34.54543        41.64599         1.90096
H         35.29136        41.73189         2.54419
O         45.13750        28.46245         1.20784
H         46.01665        28.54164         1.64875
O         35.49355        37.32699        -1.20995
H         35.74296        38.24108        -1.49113
O         47.13839        41.68471        -1.80527
H         46.90784        42.58316        -2.14043
O         40.37850        27.29166         1.69756
H         39.67790        27.88902         2.05758
O         51.20131        31.29356        -1.35913
H         50.87316        30.47449        -1.80222
O         38.87978        30.50827        -2.07830
H         37.96584        30.27530        -2.34569
O         39.02636        29.89681         1.55453
H         38.10080        29.86157         1.92571
O         34.51324        42.27941        -1.71022
H         33.98637        42.89386        -2.27058
O         31.69854        38.14077         1.10541
H         30.95560        37.50186         1.33232
O         41.73810        36.05236        -1.22294
H         42.15024        36.92208        -1.01367
O         47.39758        38.32926         1.90045
H         46.99142        37.71009         2.58409
O         42.75075        28.71699         1.29229
H         41.96402        28.24146         1.66170
O         41.52504        30.91411        -2.26289
H         42.29322        30.36389        -2.55269
O         41.41088        39.72702         2.64801
H         42.29624        39.55731         3.04744
O         32.15280        41.82103         1.09621
H         32.60735        41.18519         1.69409
O         46.89443        42.77244         1.74441
H         46.13716        43.29995         2.14931
O         42.51028        32.89339         1.59856
H         43.35846        32.55356         1.98228
O         43.83852        38.69209        -0.51628
H         44.67804        38.65811        -1.05484
O         51.43118        35.19303        -1.67098
H         52.10866        34.59744        -2.05109
O         34.88799        33.61200        -1.59836
H         35.34236        32.93751        -2.16017
O         48.39943        43.94079        -2.43941
H         49.08038        43.51547        -2.99999
O         41.60464        47.52960        -2.35507
H         41.67321        48.23041        -3.03505
O         35.94493        40.17773        -1.17949
H         35.43086        40.76437        -1.78972
O         31.49128        33.59485         2.36372
H         30.87170        34.22102         2.80615
O         33.80256        44.24742         1.28016
H         33.00393        43.75846         1.58320
O         46.70501        29.46429        -1.94186
H         46.82372        28.54032        -2.27532
O         40.17494        39.86580        -0.77081
H         40.89757        40.34952        -1.22657
O         51.62690        38.01818        -2.00903
H         52.42744        38.51459        -2.27970
O         38.68481        33.99430        -1.65491
H         39.56064        33.97344        -2.10877
O         42.37851        35.22997         2.28016
H         43.11127        35.49274         2.87664
O         45.35336        40.34939         2.11295
H         46.13644        40.90445         2.35392
O         47.18573        37.51566        -1.64428
H         47.71316        36.84478        -2.14055
O         37.78767        36.55947        -0.99025
H         37.79536        35.80382        -1.62369
O         48.09717        40.70350         1.55095
H         48.15689        39.85152         2.05035
O         50.40728        36.06015         1.72870
H         51.27126        36.48252         1.92951
O         41.53176        33.71141        -1.85125
H         41.65570        34.63664        -2.18928
O         36.31801        29.71048         1.72431
H         36.28824        28.81351         2.13582
O         38.95271        44.22416         2.34027
H         38.21999        43.68611         2.72524
O         38.71160        26.39477        -1.48316
H         39.45760        25.85417        -1.84080
O         35.15329        36.06030         2.19738
H         35.07024        35.14681         2.56220
O         34.21820        33.49560         2.00205
H         33.36375        33.42445         2.49905
O         32.29554        33.26210        -1.16103
H         33.15407        33.34934        -1.64429
O         33.22145        37.95763        -2.45744
H         33.35699        37.02787        -2.73663
O         46.06003        39.57254        -1.32114
H         46.84759        39.35583        -1.86906
O         40.27790        32.06537         1.02820
H         39.38127        32.01692         1.51436
O         39.05168        45.74872        -1.91800
H         38.32953        45.96842        -2.54363
O         37.51192        36.68583         2.61938
H         37.24021        37.42387         3.20757
O         53.81796        29.57423         1.65973
H         54.58666        30.15355         1.82911
O         42.84022        42.04801         2.60655
H         43.49638        42.76793         2.79615
