         334
 CSIRO Nanostructure Databank - Neutral Graphene Oxide Data Set
C         30.33048        57.19846        -0.19398
C         30.47272        58.63596        -0.62249
C         29.36846        59.30717        -1.14249
C         30.62810        61.36912        -1.31244
C         29.45159        60.66991        -1.49719
C         32.81997        52.94135         0.35998
C         32.82708        54.32560         0.44193
C         31.51412        55.06141         0.49369
C         32.81235        57.20155         0.27267
C         31.63398        56.52262         0.14899
C         32.86785        58.64604         0.04494
C         31.70331        59.32200        -0.46015
C         32.99117        61.40433        -0.57649
C         31.77825        60.71401        -0.78492
C         35.32063        48.63637         0.14878
C         35.26346        50.08214         0.14740
C         34.05141        50.78738         0.22953
C         35.26767        52.92463         0.38412
C         34.03601        52.20182         0.31301
C         35.27315        54.33342         0.60796
C         34.05227        55.04148         0.57483
C         35.22806        57.19185         0.83201
C         34.06497        56.50118         0.59131
C         35.18983        58.68958         1.01608
C         34.03980        59.34844         0.28730
C         35.34930        61.43322         0.09068
C         34.11864        60.74596        -0.04423
C         37.77878        44.40331        -0.48983
C         37.71679        45.81423        -0.52371
C         36.56678        46.52013        -0.12773
C         37.64471        48.74411        -0.69970
C         36.48331        47.93703        -0.15145
C         37.78382        50.07256         0.04526
C         36.47964        50.82790         0.09399
C         37.75841        52.93924         0.37493
C         36.49386        52.21526         0.24544
C         37.72344        54.34967         0.76183
C         36.52090        55.02756         0.85735
C         37.76309        57.24038         1.49802
C         36.40856        56.43703         1.43675
C         37.71805        58.66775         0.94907
C         36.51998        59.35254         0.73011
C         37.78534        61.44018         0.36386
C         36.55279        60.74804         0.40199
C         40.19870        40.09373        -0.17915
C         40.15334        41.50742        -0.35663
C         38.98364        42.24315        -0.41728
C         40.21988        44.34576        -0.85669
C         38.97865        43.66563        -0.64224
C         40.19235        45.77415        -1.21186
C         38.90610        46.56089        -1.00749
C         40.15916        48.72493        -0.73855
C         38.96897        48.01942        -0.76062
C         40.21273        50.14568        -0.45001
C         38.92173        50.93463        -0.52993
C         40.23158        52.89327         0.63066
C         38.94402        52.28053         0.16513
C         40.21005        54.40488         0.56684
C         38.98408        55.08141         0.81364
C         40.19734        57.18741         0.90185
C         38.98007        56.48540         0.96801
C         40.20451        58.65152         1.12073
C         38.94378        59.37500         0.87939
C         40.25382        61.48664         0.55810
C         38.99662        60.77287         0.60757
C         42.60123        35.80467         0.59029
C         42.45987        37.27814         0.86658
C         41.45683        37.90843        -0.11917
C         42.62233        40.10875         0.21420
C         41.40424        39.41019         0.00210
C         42.56896        41.61495         0.28336
C         41.48590        42.16783        -0.63665
C         42.67259        44.35211        -0.51752
C         41.45206        43.67871        -0.62662
C         42.73841        45.79938        -0.83088
C         41.48794        46.52755        -1.21697
C         42.71914        48.73608        -0.82296
C         41.43277        48.02877        -1.08031
C         42.68999        50.09341        -0.21736
C         41.41041        50.82031        -0.19455
C         42.68311        52.92852         0.00782
C         41.46594        52.22276         0.07287
C         42.63122        54.43197        -0.11941
C         41.40750        55.11603         0.44790
C         42.65660        57.28261         0.55005
C         41.41845        56.52642         0.62894
C         42.72237        58.65472         0.66924
C         41.50026        59.40975         0.99742
C         42.74211        61.52728         0.62172
C         41.48021        60.85999         0.70420
C         45.03427        33.03035         0.11100
C         43.83590        33.70962         0.24611
C         45.07972        35.79350         0.64727
C         43.81823        35.11783         0.50479
C         45.10290        37.25487         0.87679
C         43.80110        38.01536         0.88011
C         45.08388        40.12938         0.41999
C         43.83347        39.44631         0.49234
C         45.11007        41.55126         0.18218
C         43.90326        42.28120         0.04100
C         45.15728        44.38018        -0.20469
C         43.90496        43.66525        -0.21482
C         45.19474        45.79628        -0.33284
C         43.89526        46.55184        -0.20837
C         45.16556        48.66442        -0.63983
C         43.99395        47.99105        -0.64050
C         45.18936        50.15838        -0.88303
C         43.98978        50.84061        -0.24374
C         45.16983        53.03176        -0.31284
C         43.93614        52.30834        -0.22704
C         45.18741        54.39435        -0.05008
C         43.92345        55.06598         0.31903
C         45.17521        57.26615         0.08388
C         43.92947        56.53546         0.51928
C         45.18855        58.71092         0.49863
C         43.98306        59.38347         0.61374
C         45.21791        61.52673         0.64056
C         43.96498        60.84075         0.66531
C         46.25774        33.70795         0.23911
C         47.60870        35.77544         0.72857
C         46.28057        35.08840         0.50857
C         47.57303        37.27274         0.50392
C         46.35087        37.98672         0.57495
C         47.56741        40.09496         0.26810
C         46.32919        39.39994         0.44229
C         47.58925        41.51291         0.13645
C         46.35885        42.23792         0.07280
C         47.61909        44.36607        -0.04107
C         46.38013        43.65964        -0.07654
C         47.62945        45.78391        -0.14187
C         46.40714        46.48137        -0.35239
C         47.55346        48.66614         0.14954
C         46.49273        47.95182        -0.69203
C         47.61680        50.14802        -0.18546
C         46.47613        50.84322        -0.47084
C         47.67707        53.01410        -0.02707
C         46.48311        52.34953        -0.68066
C         47.65363        54.35378         0.30399
C         46.41636        55.12010         0.19614
C         47.61660        57.19109         0.95645
C         46.40969        56.48023         0.41071
C         47.64028        58.68145         0.69994
C         46.45913        59.39322         0.60043
C         47.69712        61.54120         0.63438
C         46.44651        60.85544         0.63733
C         48.77378        37.95323         0.33702
C         50.03243        40.07048         0.15219
C         48.80736        39.37332         0.24162
C         50.07531        41.48463         0.11164
C         48.83245        42.20464         0.07913
C         50.08529        44.30978         0.14770
C         48.85627        43.62935         0.05195
C         50.06564        45.76003         0.35748
C         48.84792        46.52538         0.05686
C         50.11027        48.64567         0.12655
C         48.87989        47.92623         0.08785
C         50.08427        50.08057        -0.02828
C         48.90247        50.82467        -0.12573
C         50.12325        52.95966         0.08441
C         48.92856        52.27264        -0.05507
C         50.15770        54.32839         0.69719
C         48.88358        55.10413         0.50932
C         50.10974        57.24181         0.16518
C         48.88813        56.46751         0.58526
C         50.18018        58.67573         0.62088
C         48.92564        59.39480         1.05920
C         50.16312        61.52422         0.61415
C         48.92186        60.86431         0.70351
C         51.30183        42.20178         0.10506
C         52.57389        44.34457         0.13137
C         51.33375        43.61217         0.14919
C         52.64006        45.74091         0.16719
C         51.39194        46.50009         0.40115
C         52.60849        48.59824         0.10520
C         51.36994        47.94981         0.15582
C         52.61724        50.06402         0.19110
C         51.36791        50.77535        -0.19690
C         52.65702        52.99549         0.11498
C         51.39344        52.29201        -0.15131
C         52.65931        54.36802         0.32559
C         51.41607        55.10534         0.40381
C         52.63412        57.22442         0.23554
C         51.40411        56.48477         0.34572
C         52.62353        58.65166         0.26595
C         51.37209        59.35987         0.49901
C         52.62153        61.50073         0.49976
C         51.39269        60.82195         0.58468
C         53.84617        46.48366         0.03321
C         55.09752        48.64381        -0.00264
C         53.86308        47.89528         0.07099
C         55.17024        50.03493         0.04198
C         53.90959        50.80298         0.21422
C         55.14551        52.91069         0.44752
C         53.93676        52.26232        -0.21540
C         55.16487        54.40170         0.23556
C         53.90119        55.11046         0.27938
C         55.13366        57.22372        -0.15995
C         53.85930        56.50265         0.18720
C         55.09698        58.70327         0.13131
C         53.85286        59.37922         0.23646
C         55.08769        61.51184         0.26241
C         53.85259        60.81740         0.35521
C         56.38225        50.79324        -0.07072
C         57.61152        52.95346        -0.03948
C         56.42326        52.18948         0.06143
C         57.61997        54.36401         0.07798
C         56.36426        55.07196         0.21650
C         57.60765        57.28848         0.12112
C         56.34323        56.55907         0.47933
C         57.56975        58.66547         0.09005
C         56.31539        59.39217         0.15349
C         57.53925        61.53156        -0.11260
C         56.31054        60.83619         0.14574
C         58.81438        55.13055        -0.05758
C         60.01776        57.27174        -0.38305
C         58.83387        56.53723        -0.06130
C         60.03433        58.66787        -0.40172
C         58.86292        59.42718         0.18225
C         59.93674        61.52513        -0.67865
C         58.75143        60.86754        -0.25914
C         61.16169        59.41029        -0.81855
C         61.11057        60.80831        -0.92234
O         39.33216        46.12599        -2.35240
O         53.19629        50.55855         1.46342
O         50.69529        46.14178         1.64176
O         40.93849        59.07343         2.33146
O         42.15744        48.71145        -2.17064
O         43.51155        50.20809         0.98954
O         42.44848        46.09040        -2.23411
O         44.00752        55.62872         1.67022
O         44.49700        37.73702         2.14851
O         51.46700        51.53570        -1.44874
O         47.09050        48.56819         1.52556
H         47.78840        48.93014         2.11117
O         54.11245        52.32129        -1.64893
H         53.25726        52.03911        -2.05481
O         34.94366        58.89480         2.45430
H         35.33592        58.11846         2.92381
O         41.87012        37.43053         2.18460
H         42.60222        37.29555         2.82861
O         38.69212        51.25090        -1.92695
H         38.27678        50.46023        -2.35437
O         42.17681        41.95777         1.64584
H         42.83351        41.56611         2.25908
O         45.07680        57.29785        -1.38529
H         45.90603        57.68749        -1.73497
O         35.95914        56.21596         2.81376
H         36.76502        56.17099         3.37910
O         37.29089        49.01542        -2.09609
H         37.38614        48.17559        -2.59520
O         42.57534        54.69123        -1.56164
H         41.80379        54.21050        -1.92942
O         47.52185        57.06607         2.42644
H         48.12669        57.75570         2.80325
O         50.20073        54.06688         2.15356
H         49.96296        54.90064         2.61385
O         48.63389        35.17119        -0.06849
H         48.40708        35.30293        -1.01152
O         43.57315        46.59954         1.21682
H         44.29063        47.08698         1.67643
O         45.07135        50.36238        -2.32703
H         45.73141        49.76095        -2.74340
O         46.92653        48.05228        -2.08531
H         46.39644        47.41691        -2.61232
O         41.86412        41.79395        -1.99068
H         41.20361        42.17313        -2.60741
O         41.86153        37.59585        -1.45921
H         42.00818        36.62702        -1.50825
O         59.15320        59.50139         1.63217
H         59.98332        60.01550         1.72845
O         56.19348        56.70218         1.92579
H         57.08004        56.61661         2.33461
O         49.93645        57.35498        -1.30940
H         50.71618        57.84047        -1.65522
O         55.29960        57.09358        -1.60539
H         54.51845        57.49640        -2.03818
O         38.14363        49.72760         1.40493
H         38.32895        50.56035         1.89090
O         40.28256        52.57447         2.07785
H         41.13705        52.90993         2.42597
O         48.97409        59.37180         2.55406
H         48.33660        60.04947         2.86893
O         38.06546        57.41282         2.92027
H         38.91154        57.90751         2.99397
O         29.64518        56.44550        -1.21442
H         30.13849        56.55302        -2.05332
O         54.96636        52.72831         1.87906
H         55.70664        53.17548         2.33901
O         30.97332        54.96248         1.83455
H         31.64526        55.31636         2.45385
O         46.66286        52.57448        -2.11603
H         45.98417        52.01595        -2.56894
H         29.66774        57.15321         0.71531
H         28.42192        58.76410        -1.27316
H         30.69010        62.43678        -1.56751
H         28.56675        61.17674        -1.90703
H         31.86127        52.40448         0.30794
H         30.76657        54.57603        -0.18276
H         33.06201        62.47040        -0.83919
H         34.40419        48.07986         0.40053
H         33.09737        50.23953         0.22553
H         35.39445        62.50492        -0.15455
H         36.86563        43.85157        -0.21815
H         35.69658        45.94826         0.23087
H         37.78995        62.51657         0.13744
H         39.26086        39.51833        -0.23234
H         38.01891        41.74370        -0.23645
H         40.21885        62.56787         0.35542
H         41.66832        35.22134         0.53815
H         40.43765        37.46958         0.07801
H         42.74971        62.62398         0.52497
H         45.03182        31.95011        -0.09204
H         42.87976        33.17595         0.14758
H         45.21343        62.62758         0.65059
H         47.20834        33.16659         0.13737
H         47.90703        35.60154         1.80091
H         47.69735        62.63894         0.54742
H         49.71515        37.38516         0.31396
H         50.97386        39.50098         0.15060
H         50.17743        62.61891         0.49680
H         52.24759        41.63940         0.10575
H         53.50784        43.77019         0.03426
H         52.62701        62.60027         0.54846
H         54.79546        45.93780        -0.07693
H         56.03150        48.06785        -0.09833
H         55.07936        62.61226         0.27188
H         57.32206        50.24965        -0.25975
H         58.56255        52.43541        -0.24107
H         57.49597        62.61794        -0.29023
H         59.76039        54.59425        -0.22968
H         60.91998        56.71748        -0.68609
H         59.90888        62.60716        -0.87511
H         62.07629        58.87768        -1.11845
H         62.00401        61.34875        -1.26625
