         618
 CSIRO Nanostructure Databank - Neutral Graphene Oxide Data Set
C         22.98508        69.86287        -0.03589
C         22.95685        71.26992        -0.13624
C         21.72210        71.98211        -0.17061
C         22.92505        74.07648        -0.35907
C         21.71300        73.35882        -0.26511
C         25.46006        65.61546         0.34834
C         25.43814        67.03336         0.28073
C         24.22617        67.74626         0.14433
C         25.44615        69.89385         0.02397
C         24.20517        69.15772         0.04052
C         25.43548        71.30045        -0.12069
C         24.18743        72.00231        -0.21066
C         25.41554        74.21894        -0.53353
C         24.14994        73.41648        -0.34376
C         27.98935        61.31701         0.41448
C         27.88859        62.73816         0.52165
C         26.70485        63.46120         0.45808
C         27.86678        65.65346         0.69204
C         26.66368        64.90478         0.52368
C         27.89313        67.06236         0.54019
C         26.67401        67.76889         0.33080
C         27.91634        69.90090         0.19050
C         26.68347        69.18713         0.17939
C         27.90979        71.33415         0.01507
C         26.67518        72.03158        -0.13210
C         27.89037        74.14856        -0.22635
C         26.69141        73.44956        -0.27622
C         30.44757        57.07985         0.86820
C         30.39288        58.48687         0.91338
C         29.22485        59.19677         0.62874
C         30.47066        61.33348         0.71447
C         29.19627        60.62288         0.61122
C         30.43247        62.80006         0.34829
C         29.14973        63.44856         0.83664
C         30.38870        65.68446         0.84766
C         29.12284        64.95012         0.95032
C         30.37844        67.07838         0.76436
C         29.13580        67.78688         0.59699
C         30.39130        69.90537         0.40273
C         29.14334        69.19321         0.40404
C         30.39499        71.33373         0.03253
C         29.12457        72.06300        -0.02477
C         30.36791        74.22255         0.00791
C         29.13867        73.47874        -0.09145
C         32.87427        52.80454         0.98895
C         32.84608        54.19791         1.02964
C         31.65854        54.95465         0.97180
C         32.91309        57.10454         1.16376
C         31.65000        56.36179         1.03453
C         32.88975        58.49097         1.25836
C         31.59394        59.23727         1.44197
C         32.93775        61.36466         0.97906
C         31.65321        60.67638         0.96917
C         32.96041        62.82246         0.56019
C         31.66332        63.56412         0.75894
C         32.84686        65.70271         1.21930
C         31.61839        64.92807         0.91481
C         32.83083        67.16107         0.99904
C         31.62760        67.82145         0.79764
C         32.85553        69.97999         0.70960
C         31.60638        69.25376         0.62070
C         32.83752        71.49023         0.85985
C         31.65565        72.12615         0.16754
C         32.84544        74.30680         0.29740
C         31.60420        73.60962         0.19091
C         35.27534        48.56462         1.09413
C         35.39234        49.97060         1.08051
C         34.16412        50.70153         1.03495
C         35.35049        52.82605         0.77138
C         34.11229        52.09020         1.00167
C         35.32551        54.19590         0.68877
C         34.15230        54.90806         1.29090
C         35.39240        57.05355         0.92882
C         34.14781        56.38923         1.05540
C         35.45567        58.48673         1.28428
C         34.13707        59.24541         1.43701
C         35.43519        61.45313         1.44240
C         34.12430        60.70695         1.19317
C         35.39639        62.89626         1.00735
C         34.19500        63.54680         1.03068
C         35.47298        65.76835         1.29720
C         34.15766        64.99527         1.29345
C         35.29663        67.18412         0.81538
C         34.08859        67.85681         0.87763
C         35.33088        70.02803         1.02770
C         34.05203        69.30565         0.78647
C         35.36030        71.55158         0.92461
C         34.11636        72.13059         0.28933
C         35.32593        74.30242         0.33324
C         34.08533        73.64267         0.36044
C         38.00657        44.41178         1.38269
C         37.95570        45.78412         1.43174
C         36.66964        46.40620         1.10952
C         38.17396        48.83774         1.45663
C         36.33621        47.68906         1.48497
C         37.94817        50.09913         0.89148
C         36.64534        50.73314         0.92871
C         37.78138        52.84735         0.23045
C         36.59025        52.09713         0.61484
C         37.72474        54.21240        -0.02602
C         36.41892        54.95749         0.00348
C         37.76067        57.10606         0.14834
C         36.55107        56.38840         0.47603
C         37.78126        58.50304         0.24018
C         36.72167        59.22568         0.95680
C         37.79423        61.46764         0.27996
C         36.71911        60.72562         1.00410
C         37.73099        62.86642         0.18859
C         36.61120        63.62015         0.67225
C         37.73545        65.77695         0.22560
C         36.59258        65.02545         0.60721
C         37.77893        67.16862         0.32723
C         36.48253        67.92263         0.26616
C         37.78751        69.99800         0.76147
C         36.58116        69.32193         0.78962
C         37.79969        71.44092         0.93361
C         36.64874        72.24284         0.79605
C         37.74482        74.46678         0.16375
C         36.60774        73.67137         0.46379
C         40.53983        40.04378         1.45610
C         40.51523        41.43093         1.32757
C         39.17771        42.13212         1.19161
C         40.54295        44.33699         1.54982
C         39.22185        43.60484         1.58151
C         40.54533        45.83385         1.45065
C         39.22817        46.58585         1.55837
C         40.34376        48.61123         0.45407
C         39.25588        48.01576         1.11599
C         40.30291        49.99663         0.12929
C         39.08901        50.74191         0.31294
C         40.21029        52.83397        -0.33958
C         39.02322        52.13160         0.03347
C         40.19643        54.24397        -0.51303
C         38.88020        54.94946        -0.65776
C         40.16432        57.12444        -0.44397
C         38.94512        56.41549        -0.30608
C         40.19318        58.55481        -0.42087
C         38.86585        59.26768        -0.46019
C         40.12985        61.40750        -0.53316
C         38.94594        60.74321        -0.15263
C         40.06897        62.84683        -0.83373
C         38.80977        63.58305        -0.51928
C         40.17993        65.78055        -0.44318
C         38.87220        65.09032        -0.40874
C         40.21911        67.19029        -0.09478
C         39.01721        67.88215         0.21365
C         40.25587        70.00284         0.38622
C         39.03329        69.30038         0.45869
C         40.27200        71.40733         0.69537
C         39.09606        72.01208         1.09208
C         40.30923        74.39431        -0.03248
C         39.07794        74.12382         0.53318
C         43.13938        35.76765         1.73109
C         43.02413        37.15276         1.57658
C         41.81764        37.89332         1.66878
C         42.96758        40.06041         1.35015
C         41.76421        39.30923         1.48551
C         42.96829        41.45295         1.17327
C         41.73172        42.16727         1.19417
C         42.89249        44.30916         0.74555
C         41.75345        43.60634         1.12739
C         42.88180        45.74558         0.53008
C         41.69008        46.45841         0.74141
C         42.79913        48.52298        -0.31004
C         41.53190        47.79025         0.15238
C         42.74886        49.99199        -0.41501
C         41.48195        50.69201        -0.33116
C         42.60276        52.82427        -0.96950
C         41.41881        52.08585        -0.51749
C         42.63078        54.28822        -0.84347
C         41.40832        54.98676        -0.65884
C         42.64625        57.13178        -0.69182
C         41.41230        56.41966        -0.62782
C         42.65603        58.59203        -0.65009
C         41.39120        59.28343        -0.58186
C         42.60314        61.46321        -0.83350
C         41.37333        60.72231        -0.68162
C         42.63102        62.88804        -0.90758
C         41.35303        63.63544        -1.00746
C         42.67300        65.74726        -0.54061
C         41.33312        65.08584        -0.72906
C         42.64416        67.24946        -0.63961
C         41.45434        67.91235        -0.20947
C         42.69999        70.01879        -0.10224
C         41.47205        69.31626         0.03640
C         42.79598        71.43954         0.31738
C         41.52252        72.20699         0.72251
C         42.72349        74.31400         0.25091
C         41.52112        73.67798         0.37675
C         45.72974        33.05042         2.02126
C         44.49161        33.69483         1.96692
C         45.62553        35.78814         1.48019
C         44.40938        35.08725         1.70333
C         45.58741        37.21298         1.14881
C         44.25283        37.90064         1.22090
C         45.53084        40.11719         1.35528
C         44.24968        39.36159         1.49283
C         45.44684        41.53780         0.98720
C         44.20566        42.15748         0.91472
C         45.41734        44.31267         0.21657
C         44.11382        43.54653         0.43996
C         45.37917        45.78509         0.26332
C         44.11131        46.45094         0.20771
C         45.27220        48.60683        -0.14683
C         44.08985        47.85976        -0.05271
C         45.22896        49.99849        -0.47466
C         43.95280        50.67028        -0.56605
C         45.16579        52.87712        -0.89918
C         43.93394        52.08261        -0.96010
C         45.10792        54.25328        -1.02808
C         43.85516        54.98309        -0.95450
C         45.13756        57.11562        -0.70199
C         43.85430        56.40337        -0.84079
C         45.12662        58.61447        -0.59541
C         43.84670        59.33521        -0.72039
C         45.06761        61.51810        -1.02506
C         43.85798        60.77452        -0.84731
C         45.07307        62.91720        -1.22455
C         43.83446        63.58902        -1.07929
C         44.94245        65.80750        -1.84858
C         43.74918        65.04915        -1.34279
C         44.83900        67.37067        -1.94948
C         43.80112        67.97242        -0.96275
C         45.02420        70.14489        -1.01756
C         43.80435        69.37196        -0.68833
C         45.10909        71.60578        -0.66781
C         43.96708        72.22491        -0.01146
C         45.18681        74.40350        -0.18809
C         44.05173        73.63859         0.50673
C         46.92039        33.75295         1.84090
C         48.09562        35.90343         1.40621
C         46.89347        35.14935         1.57662
C         48.09735        37.31101         1.24434
C         46.83867        38.00167         1.20177
C         47.99857        40.15093         1.04475
C         46.80060        39.39031         1.12953
C         47.93964        41.57582         0.98718
C         46.68241        42.25447         0.82948
C         47.85569        44.41025         0.71750
C         46.67393        43.63823         0.56257
C         47.86105        45.80408         0.29776
C         46.59978        46.48043         0.23640
C         47.78805        48.59384        -0.35124
C         46.57806        47.98643         0.29058
C         47.68658        49.94752        -0.98792
C         46.42026        50.72661        -0.71519
C         47.62285        52.87646        -0.99853
C         46.41863        52.14050        -0.88021
C         47.62677        54.28184        -1.12876
C         46.34705        54.99652        -1.44749
C         47.57705        57.13458        -1.22466
C         46.40516        56.44641        -1.06237
C         47.53211        58.60737        -1.54915
C         46.40849        59.34980        -0.85186
C         47.54198        61.45956        -1.75225
C         46.37286        60.82208        -1.02309
C         47.56461        62.97724        -1.66582
C         46.28744        63.68686        -1.57126
C         47.46424        65.80207        -2.19263
C         46.22969        65.05412        -1.84170
C         47.50446        67.31549        -2.10649
C         46.22211        68.17481        -2.03289
C         47.60690        70.02879        -0.93565
C         46.29223        69.34165        -1.06818
C         47.63726        71.49854        -0.66909
C         46.44097        72.23476        -0.49540
C         47.68712        74.23562         0.06855
C         46.47162        73.61347        -0.18224
C         49.29401        38.07714         1.16331
C         50.45016        40.28529         0.95376
C         49.26209        39.47993         1.05805
C         50.41434        41.66408         0.99052
C         49.13752        42.33271         1.11824
C         50.50621        44.35758        -0.54883
C         48.99891        43.74602         1.24715
C         50.32478        45.83854        -0.34076
C         49.06830        46.48014        -0.10216
C         50.22887        48.63021        -0.64282
C         49.00210        47.90932        -0.37228
C         50.15316        50.06061        -0.68615
C         48.93856        50.73391        -0.76686
C         50.09424        52.94631        -0.69704
C         48.92431        52.16007        -1.21455
C         50.08699        54.35572        -0.99078
C         48.82458        55.01526        -1.20343
C         50.00117        57.13520        -1.78693
C         48.83367        56.43959        -1.45179
C         50.02652        58.58982        -1.76194
C         48.86737        59.30781        -1.50817
C         50.06472        61.48782        -1.98225
C         48.88638        60.81518        -1.31720
C         50.02082        62.88315        -2.12434
C         48.75905        63.60180        -1.98026
C         50.09512        65.81105        -2.25293
C         48.77789        65.05395        -2.26362
C         50.09882        67.26022        -1.89486
C         48.82206        68.00569        -1.84098
C         50.09466        70.08387        -1.42756
C         48.82618        69.31052        -1.39304
C         50.11424        71.54139        -1.04544
C         48.86275        72.17834        -0.56762
C         50.13532        74.12986         0.24705
C         48.89704        73.52744        -0.11181
C         51.73233        42.41941         0.83813
C         52.82793        44.54907         0.12073
C         51.70691        43.77801         0.13441
C         52.79942        45.92307        -0.36288
C         51.52236        46.57948        -0.49208
C         52.71287        48.74861        -0.92225
C         51.50239        48.00586        -0.66565
C         52.60223        50.18588        -1.00369
C         51.37807        50.81287        -0.66059
C         52.92401        53.19469        -0.96684
C         51.22843        52.21556        -0.37143
C         52.35684        54.17741        -1.73567
C         51.23160        54.99673        -1.49363
C         52.56750        57.03943        -2.25863
C         51.18342        56.30691        -2.28239
C         52.55762        58.55623        -2.14346
C         51.27431        59.31255        -2.01435
C         52.45483        61.47287        -2.60225
C         51.25504        60.69121        -2.14070
C         52.44966        62.82306        -1.90271
C         51.26177        63.65955        -2.22595
C         52.67612        65.80794        -2.10141
C         51.34605        65.02345        -2.11381
C         52.50606        66.98922        -1.08340
C         51.29048        67.83364        -1.49470
C         52.67633        69.99298        -1.03665
C         51.39193        69.31690        -1.47656
C         52.61638        71.35046        -0.48124
C         51.44984        72.26575        -0.82655
C         52.50499        73.98124         0.69504
C         51.35489        73.46647         0.09345
C         53.96327        46.66390        -0.48719
C         55.30246        48.60536        -0.97681
C         53.99781        48.05216        -0.86240
C         55.59731        49.86029        -1.60307
C         53.68056        50.96645        -1.58582
C         55.21512        52.94958        -1.96570
C         53.90943        52.31505        -1.56781
C         55.22800        54.31908        -2.57313
C         54.03280        55.00470        -2.84447
C         55.08250        57.12786        -2.82848
C         53.86909        56.38996        -2.72614
C         54.85542        58.54487        -3.06196
C         53.75166        59.26394        -2.68471
C         55.07960        61.44281        -2.12266
C         53.80442        60.75088        -2.62840
C         54.87880        62.56735        -1.10477
C         53.65941        63.45243        -1.34459
C         55.04666        65.53441        -1.02062
C         53.94038        64.87273        -1.80543
C         55.12571        67.03324        -1.13302
C         53.80489        67.78035        -0.90281
C         55.22941        69.84093        -0.73527
C         53.86802        69.13097        -0.76455
C         55.17484        71.26175        -0.14535
C         53.84374        72.03634        -0.12015
C         54.82187        73.75378         1.39902
C         53.74578        73.28067         0.69549
C         56.64684        50.74676        -1.49277
C         57.70885        52.95359        -2.36668
C         56.53892        52.20366        -1.85519
C         57.68394        54.32556        -2.53220
C         56.42618        55.07426        -2.58802
C         57.68838        57.26114        -2.91544
C         56.36269        56.47944        -2.79571
C         57.60455        58.60425        -2.17531
C         56.66916        59.56167        -2.61055
C         57.31847        61.19025        -0.95272
C         56.34087        60.69942        -1.86296
C         57.25855        62.56720        -0.54472
C         56.14122        63.34033        -0.82093
C         57.35583        65.38390        -0.10587
C         56.13578        64.76841        -0.61781
C         57.38934        66.80033         0.05534
C         56.28636        67.61417        -0.35601
C         57.41452        69.57907         0.55787
C         56.30105        68.98042        -0.09818
C         57.35886        70.94621         0.99724
C         56.20032        71.70703         0.79685
C         57.28682        73.64653         1.93527
C         56.00889        72.89781         1.70175
C         58.91922        55.07452        -2.62745
C         60.22844        57.14139        -2.45869
C         58.94712        56.43959        -2.58969
C         60.35026        58.13055        -1.49253
C         58.41335        59.02266        -1.12250
C         59.72243        60.93757        -0.24047
C         58.47957        60.38751        -0.70004
C         59.68456        62.28724         0.35003
C         58.38426        63.14097         0.20143
C         59.67883        65.20692         0.73762
C         58.47341        64.60727         0.27096
C         59.71213        66.62089         0.91653
C         58.55477        67.40208         0.61419
C         59.73639        69.43826         1.38288
C         58.56585        68.80557         0.86253
C         59.71636        70.83562         1.66392
C         58.52675        71.55585         1.57665
C         59.68232        73.58380         2.46555
C         58.48613        72.96977         1.96345
C         61.27490        59.18007        -1.29460
C         62.17286        61.08183        -0.09366
C         61.01153        60.35569        -0.52485
C         62.14381        62.33756         0.48646
C         60.91526        63.04225         0.61032
C         62.09086        65.08894         1.32303
C         60.87895        64.42711         0.92579
C         62.08405        66.48383         1.61860
C         60.89955        67.26266         1.39282
C         62.09225        69.29473         2.15896
C         60.91550        68.66367         1.62178
C         62.11549        70.68650         2.42046
C         61.02362        71.56136         1.86007
C         62.01975        73.44165         3.18707
C         60.88908        72.89220         2.55897
C         63.42683        62.91624         1.02854
C         64.45505        64.97721         1.93887
C         63.32087        64.36325         1.44624
C         64.45292        66.35151         2.33036
C         63.25468        67.11247         2.12757
C         64.40457        69.11405         3.00002
C         63.24886        68.50434         2.44184
C         64.39007        70.49821         3.32439
C         63.23217        71.28410         3.02677
C         64.34408        73.26262         3.98137
C         63.21392        72.69243         3.38147
C         65.59176        66.96084         2.88097
C         66.71890        68.95141         3.81778
C         65.58993        68.33297         3.24215
C         66.70964        70.32415         4.16119
C         65.53697        71.10652         3.90832
C         66.66835        73.08064         4.82168
C         65.51799        72.49986         4.23821
C         67.84178        70.95580         4.74644
C         67.80897        72.30914         5.06761
O         33.40786        65.29710         2.53964
O         52.82347        57.68979        -0.97389
O         38.39867        64.43013        -1.63754
O         44.66606        43.74685        -0.90689
O         55.99773        52.98584        -0.70223
O         39.14900        73.27458         1.66646
O         29.15000        64.04418         2.15221
O         42.41923        71.73763         1.76557
O         44.85396        71.12860        -2.07521
O         58.69286        62.43826         1.42787
O         39.97106        43.84780         2.80889
O         43.90497        65.26241        -2.77073
O         59.29197        58.12840        -0.53605
O         52.32391        52.86178         0.25987
O         54.85269        72.22399        -1.18962
O         37.24792        48.32380         2.35878
O         34.93370        58.80437         2.60406
O         37.28593        59.95349         2.12380
O         35.22930        70.89068         2.22503
O         52.87707        54.25761        -3.04969
O         47.37436        66.63238        -3.39787
O         45.21949        57.79400         0.62042
O         46.97201        69.22083         0.19654
O         49.45107        65.42477        -3.50796
O         55.88594        59.24431        -3.72958
O         44.79780        37.53437        -0.08367
O         43.19046        52.31556        -2.21444
O         54.69555        61.51490        -3.51406
O         40.10681        46.43268         2.72076
O         52.89952        66.39329        -3.34836
O         52.29614        69.87930        -2.48113
O         31.32084        71.57515        -1.14210
O         52.60522        63.03367        -0.42557
O         40.57401        63.17808        -2.16728
O         54.53753        50.25990        -2.44340
O         49.79736        43.70771        -1.30886
O         49.99383        71.12869        -2.45717
O         46.73787        60.21462         0.27563
O         44.98269        39.78018         2.70085
O         41.93410        47.83206        -1.26300
O         36.19862        68.05565        -1.18237
H         36.99530        68.43720        -1.60960
O         54.54190        64.61181        -3.10337
H         54.06161        65.24657        -3.72377
O         49.14507        61.08712         0.08873
H         48.41827        60.66622         0.61159
O         44.20716        67.66056        -3.20894
H         43.64067        66.88560        -3.44217
O         30.37756        62.85927        -1.12600
H         29.69316        62.21892        -1.41998
O         38.46004        59.24967        -1.89660
H         39.18286        59.66966        -2.41202
O         34.36110        54.80648         2.75469
H         33.63587        55.30415         3.19044
O         55.66353        72.28286         3.02696
H         56.48861        71.88772         3.38413
O         47.63113        49.71054        -2.47495
H         48.29404        49.01380        -2.67705
O         44.82066        74.67466        -1.55058
H         44.85525        73.83641        -2.05813
O         47.12081        58.60176        -2.95991
H         47.74767        58.03540        -3.45906
O         50.88370        56.00283        -3.66777
H         51.43973        55.23046        -3.92547
O         43.08199        65.47336         0.85036
H         42.45801        65.94235         1.44477
O         32.70491        71.81678         2.25831
H         33.50960        71.46816         2.71486
O         35.48952        61.56683         2.89123
H         35.77566        60.68336         3.23034
O         31.40746        59.31650         2.89985
H         30.59184        59.83642         3.06385
O         52.69536        41.58273         0.18623
H         52.41920        41.47356        -0.74714
O         38.72932        42.01719        -0.17370
H         39.48433        42.20137        -0.76943
O         57.88195        57.56721        -4.32195
H         57.12799        58.13767        -4.60528
O         49.07071        52.09684        -2.69053
H         48.46405        51.37252        -2.98940
O         33.14043        62.79196        -0.90744
H         32.23986        62.75384        -1.31644
O         52.16696        61.79353        -3.99301
H         52.99899        62.14516        -4.38551
O         47.32487        61.19281        -3.15781
H         48.01341        61.66281        -3.67429
O         51.86432        72.80651        -2.10659
H         51.75125        72.08103        -2.76806
O         35.97402        55.09076        -1.40371
H         36.79859        55.20414        -1.94844
O         52.19865        66.37703         0.19640
H         52.14183        67.07570         0.88064
O         49.96000        44.43348         1.91531
H         49.73857        45.38829         1.93926
O         61.47116        71.90104         0.49625
H         61.52243        71.06509        -0.01429
O         25.37889        75.41552         0.25872
H         25.34675        75.15628         1.20219
O         34.21650        71.76173        -1.11057
H         33.32833        71.85647        -1.52398
O         55.62947        69.99958        -2.11433
H         55.59173        69.10239        -2.53823
O         55.35472        67.28425        -2.56695
H         54.48507        67.05434        -3.03714
O         44.36007        73.62646         1.92785
H         43.67882        73.05376         2.35695
O         46.26187        55.02663        -2.92423
H         46.24794        54.09632        -3.23717
O         46.23325        68.89071        -3.28032
H         46.22225        68.22612        -4.00465
O         46.68816        48.32079         1.74057
H         45.89171        47.95692         2.18359
O         38.58358        54.92175        -2.14643
H         38.78428        54.01395        -2.46388
O         35.90848        65.89775         2.68677
H         35.08951        65.86574         3.23754
O         54.67158        61.81095         0.12527
H         53.75055        62.00761         0.43383
O         64.49845        62.75374         0.08461
H         64.30993        63.31754        -0.69321
H         22.90724        75.17176        -0.44797
H         25.43967        74.56397        -1.60643
H         27.87243        75.24558        -0.30402
H         30.30941        75.32118        -0.02726
H         32.83224        75.40812         0.28254
H         35.32190        75.39794         0.21429
H         37.57369        75.40949        -0.37921
H         40.41337        75.18081        -0.79443
H         42.74120        75.36533        -0.07317
H         45.33610        75.38719         0.31797
H         47.71795        75.29138         0.37319
H         50.11438        75.09744         0.77061
H         52.42696        74.90915         1.28260
H         54.72271        74.69328         1.96444
H         57.23843        74.69951         2.25033
H         59.61289        74.60533         2.87063
H         61.96634        74.46603         3.58736
H         64.32890        74.32754         4.25795
H         66.66101        74.14926         5.07973
H         22.03729        69.30511        -0.00272
H         20.77937        71.41942        -0.11278
H         20.75945        73.90475        -0.28173
H         24.51449        65.06266         0.24626
H         23.27452        67.19429         0.12928
H         27.06647        60.73331         0.27697
H         25.75842        62.92849         0.28018
H         29.52725        56.51958         0.64132
H         28.30436        58.64670         0.38046
H         31.93256        52.23863         0.92163
H         30.69818        54.42750         0.86115
H         34.28907        48.13517         0.85604
H         33.22322        50.13452         1.10587
H         37.08024        43.86154         1.15663
H         35.94762        45.80292         0.53882
H         39.58846        39.49747         1.54197
H         38.41177        41.61144         1.82145
H         42.23949        35.17086         1.94430
H         40.87742        37.35263         1.85576
H         45.76583        31.97055         2.22310
H         43.56810        33.12294         2.13629
H         47.88618        33.23191         1.90360
H         49.05821        35.37153         1.44971
H         50.26392        37.55903         1.20112
H         51.42127        39.78229         0.83237
H         52.13341        42.60420         1.87382
H         53.77479        44.16312         0.53104
H         54.92668        46.15521        -0.32632
H         56.13706        47.99305        -0.59943
H         57.52587        50.46959        -0.89069
H         58.67397        52.42819        -2.43777
H         59.86093        54.51528        -2.51279
H         61.08080        56.85180        -3.09233
H         62.27448        59.09691        -1.74759
H         63.15415        60.60423        -0.23236
H         63.71794        62.30733         1.92904
H         65.38635        64.39866         2.02585
H         66.50182        66.36331         3.03917
H         67.62443        68.35500         4.00454
H         68.74613        70.36232         4.94267
H         68.69267        72.78098         5.51991
