         244
 CSIRO Nanostructure Databank - Neutral Graphene Oxide Data Set
C          1.24755         2.10137        -0.67215
C          1.22716         3.50190        -0.70908
C          2.44183         1.41399        -0.51562
C          2.41353         4.25230        -0.57976
C          1.24055         6.44051        -0.89716
C          1.26513         7.82837        -1.00208
C          2.41639         5.70932        -0.64364
C          2.45043         8.55248        -0.80818
C          1.22873        10.76474        -0.52060
C          1.22750        12.09756        -0.40517
C          2.45120        10.04865        -1.06323
C          2.46282        12.87594        -0.82456
C          1.35297        15.11163        -0.87107
C          1.36714        16.49665        -0.76906
C          2.44642        14.33733        -0.43999
C          2.48070        17.18638        -0.24168
C          2.50254        18.62912        -0.48367
C          3.66472         2.12473        -0.37665
C          3.64346         3.56149        -0.39689
C          4.88453         1.43391        -0.21634
C          4.87275         4.28541        -0.25724
C          3.64031         6.42456        -0.48571
C          3.64866         7.85156        -0.54673
C          4.87309         5.70924        -0.30152
C          4.89776         8.57504        -0.37785
C          3.70770        10.74198        -0.55799
C          3.66846        12.10977        -0.33004
C          4.90032         9.98182        -0.35172
C          4.72981        12.75274         0.47197
C          3.54049        14.98177         0.15412
C          3.53954        16.39203         0.29294
C          4.66407        14.22952         0.85171
C          4.72089        16.97850         0.89185
C          3.56167        19.48458        -0.42728
C          4.81051        19.08140         0.19432
C          6.11719         2.12049        -0.05771
C          6.10390         3.58148        -0.11199
C          7.30096         1.42581         0.18435
C          7.31549         4.29516        -0.04609
C          6.10368         6.42449        -0.18212
C          6.11513         7.84783        -0.21012
C          7.33290         5.70408        -0.05684
C          7.35322         8.55059         0.05055
C          6.19975        10.74826        -0.25280
C          6.04164        12.03154         0.54051
C          7.35691         9.92789         0.22732
C          7.29094        12.79644         0.79857
C          6.02345        14.94281         0.77863
C          5.96566        16.38568         0.91783
C          7.21269        14.24526         0.90365
C          7.16605        17.30709         1.19969
C          6.09020        19.24942        -0.24645
C          7.24978        18.55604         0.29964
C          8.56185         2.15947         0.54011
C          8.59956         3.51766        -0.16553
C          9.83988         1.41435         0.23848
C          9.83439         4.31033         0.16871
C          8.58852         6.42738         0.00515
C          8.59221         7.80771         0.12788
C          9.83611         5.66886         0.06988
C          9.86711         8.61246        -0.02844
C          8.49928        10.59012         0.95852
C          8.46898        12.10451         0.91759
C          9.84774         9.97955         0.61483
C          9.72313        12.80644         1.26577
C          8.47569        14.98629         1.16646
C          8.47847        16.49243         1.18649
C          9.77138        14.25805         1.03240
C          9.73400        17.14265         0.77265
C          8.47404        19.11303         0.04398
C          9.73439        18.45776         0.32419
C         11.04252         2.08159         0.23412
C         11.05839         3.54636         0.62662
C         12.29292         1.42080         0.02762
C         12.34899         4.26188         0.32274
C         11.13442         6.40506        -0.16977
C         11.13087         7.84452         0.25752
C         12.36178         5.64815         0.25281
C         12.29881         8.47698         0.55584
C         11.00646        10.61082         0.91620
C         11.02990        12.04821         1.29042
C         12.30924         9.87422         1.11599
C         12.27890        12.80063         1.02414
C         10.97407        14.90633         0.92838
C         10.98573        16.34804         0.48747
C         12.24076        14.18837         0.90988
C         12.22412        17.12358         0.92308
C         10.97627        19.09887         0.00226
C         12.20619        18.49104         0.24731
C         13.52823         2.08835         0.09603
C         13.57021         3.53036         0.28863
C         14.75096         1.40225        -0.11234
C         14.79751         4.21802         0.30000
C         13.59101         6.36318         0.36282
C         13.57694         7.78019         0.51813
C         14.81693         5.64686         0.41630
C         14.78773         8.49245         0.61644
C         13.55086        10.66813         0.77407
C         13.51783        12.07021         0.83070
C         14.79350         9.95860         0.68852
C         14.75000        12.81121         0.72280
C         13.47903        14.94396         0.71519
C         13.47061        16.32640         0.63699
C         14.73854        14.21883         0.67481
C         14.75644        17.10994         0.62299
C         13.41711        19.12218        -0.09551
C         14.66533        18.47678        -0.01333
C         15.98834         2.07330        -0.11855
C         16.03545         3.49497         0.12768
C         17.20824         1.38855        -0.36813
C         17.25570         4.17424         0.14181
C         16.03770         6.37260         0.49720
C         16.01637         7.76678         0.57148
C         17.32745         5.59557         0.64590
C         17.28558         8.54078         0.47184
C         16.00818        10.67012         0.70871
C         15.99583        12.08721         0.69891
C         17.30632         9.94470         1.05113
C         17.28396        12.81343         0.91689
C         15.96296        14.94594         0.43023
C         15.92487        16.29181         0.15907
C         17.34269        14.31753         0.58686
C         17.03668        16.93299        -0.57375
C         15.83635        19.11438        -0.42204
C         17.06446        18.41788        -0.65126
C         18.42347         2.07280        -0.42543
C         18.46608         3.49055        -0.16925
C         19.65298         1.38869        -0.72833
C         19.69474         4.19692        -0.27588
C         18.55286         6.32552         0.16477
C         18.55169         7.79822         0.22477
C         19.73001         5.64058        -0.11869
C         19.86718         8.45515         0.48322
C         18.57337        10.70390         0.66913
C         18.54085        12.05458         0.55509
C         19.87215         9.96506         0.67215
C         19.78506        12.86073         0.42903
C         18.30887        14.64017        -0.58580
C         18.21842        16.12238        -1.01558
C         19.69913        14.20061        -0.16401
C         19.47603        16.87636        -1.39437
C         18.15145        19.06217        -1.18246
C         19.37513        18.38103        -1.72546
C         20.83150         2.07164        -0.82580
C         20.88239         3.49586        -0.63350
C         22.07979         4.21406        -0.82188
C         20.98780         6.34398        -0.30722
C         21.07135         7.76708        -0.02760
C         22.12389         5.60013        -0.66374
C         22.22967         8.51203        -0.16222
C         21.13167        10.66196         0.33938
C         21.14872        12.14352         0.37349
C         22.24700         9.92637         0.00897
C         22.26059        12.91749        -0.18128
C         20.84663        14.91547        -0.40561
C         20.79346        16.29932        -0.96498
C         22.13233        14.25409        -0.39876
C         21.88554        17.22274        -0.63463
C         20.55011        19.17483        -1.21853
C         21.70820        18.59994        -0.71628
O         17.02572        12.64713         2.32763
O         17.12844        16.32709        -1.95894
O          8.53283        15.72911         2.45439
O         20.00220         9.03541         1.80972
O          5.11387        11.92023         1.63814
O         10.33321        12.36950         2.54464
O         20.32460        16.23024        -2.39572
O         20.63078        12.73683         1.61182
O          4.60717        18.29281         1.34266
O         17.81862         8.46106        -0.89949
O          4.30815        14.25965         2.26396
H          4.38408        15.18547         2.57814
O          9.92002         8.90149        -1.47859
H         10.31389         8.10300        -1.90865
O         11.09884        16.27805        -0.97583
H         10.31427        15.80525        -1.32413
O          8.73622         3.19621        -1.59270
H          8.60268         4.02526        -2.09863
O          8.50252         2.42590         1.98976
H          8.37990         1.56670         2.44583
O          7.02512        17.82892         2.53793
H          7.36892        17.13651         3.14825
O         11.22360         6.45108        -1.65980
H         11.34182         5.52849        -1.97499
O         12.18439        17.32802         2.35288
H         13.08140        17.63353         2.62648
O         19.33540        18.51612        -3.17578
H         19.86781        17.76908        -3.53425
O         15.01474        17.38993         2.06303
H         15.37865        16.56964         2.46406
O          2.50662        12.90111        -2.28114
H          2.42482        11.96361        -2.59771
O         10.98764         3.57237         2.09120
H         10.09876         3.20515         2.33590
O         17.51991         5.48152         2.10901
H         18.33130         4.95141         2.26137
O          6.55255        11.18381        -1.62211
H          6.93389        10.41169        -2.09264
O         17.29253         9.84988         2.49339
H         17.28052        10.78979         2.81695
O         17.93099        13.82629        -1.71525
H         17.43455        14.40830        -2.33618
O          2.40170        10.19044        -2.52810
H          3.19061         9.73673        -2.89344
O         17.90423        14.95892         1.75523
H         17.73516        14.31578         2.49601
O          8.31690        10.24597         2.37408
H          8.98299        10.77207         2.87812
O         12.38015         9.69926         2.57498
H         13.25012         9.29869         2.78836
H          0.30468         1.54606        -0.77435
H          0.26149         4.00764        -0.84071
H          2.45382         0.31486        -0.49622
H          0.28402         5.92178        -1.04320
H          0.33532         8.35953        -1.24838
H          0.34358        10.17700        -0.23607
H          0.34483        12.63539        -0.02727
H          0.49565        14.61105        -1.34208
H          0.52120        17.07610        -1.16711
H          1.58084        19.01288        -0.95169
H          4.87737         0.33390        -0.18818
H          3.46850        20.48749        -0.87177
H          7.27475         0.32797         0.27141
H          6.27259        19.92319        -1.09789
H          9.80443         0.33233         0.03391
H          8.51984        20.07247        -0.49469
H         12.28586         0.33962        -0.18209
H         10.95084        20.11091        -0.43045
H         14.72932         0.31806        -0.30045
H         13.37869        20.12874        -0.54196
H         17.18796         0.30245        -0.54342
H         15.78533        20.17275        -0.72178
H         19.62269         0.30234        -0.89705
H         18.10282        20.15353        -1.31911
H         21.76267         1.54258        -1.07606
H         22.99423         3.67047        -1.09975
H         23.08656         6.10955        -0.80702
H         23.16469         8.03352        -0.48428
H         23.19753        10.44155        -0.18856
H         23.21559        12.42068        -0.40193
H         23.00189        14.82003        -0.76193
H         22.80800        16.82164        -0.19388
H         20.48318        20.26930        -1.29874
H         22.52874        19.25644        -0.38963
