         344
 CSIRO Nanostructure Databank - Neutral Graphene Oxide Data Set
C          1.62460         2.07043        -1.56103
C          1.44592         3.47796        -1.26347
C          2.63487         1.36294        -1.00809
C          2.43436         4.18046        -0.63094
C          1.11252         6.37021        -0.61406
C          1.12830         7.72448        -0.69220
C          2.32541         5.61507        -0.16163
C          2.33500         8.49366        -0.51098
C          1.14880        10.66140        -0.62848
C          1.17129        12.08302        -0.73737
C          2.32086         9.91254        -0.55341
C          2.31709        12.80703        -0.53329
C          1.36556        14.97294        -1.50367
C          1.48269        16.29909        -1.76418
C          2.32889        14.28850        -0.62583
C          2.66173        17.05385        -1.39955
C          2.76319        18.43370        -1.75036
C          3.56586         2.01902        -0.00586
C          3.66180         3.49986        -0.26223
C          4.90030         1.35293         0.10407
C          4.84628         4.19771        -0.14390
C          3.60043         6.39378        -0.37895
C          3.58807         7.77622        -0.40288
C          4.89409         5.64504        -0.58382
C          4.84162         8.52520        -0.23277
C          3.62894        10.66418        -0.72761
C          3.56369        12.06110        -0.07872
C          4.85297         9.90693        -0.26057
C          4.85755        12.86417        -0.34818
C          3.59546        15.04886        -0.26270
C          3.76453        16.40200        -0.82000
C          4.80918        14.28593         0.27568
C          5.02303        17.06404        -0.72928
C          3.92591        19.12891        -1.52628
C          5.09045        18.45703        -1.04418
C          6.06867         2.06544         0.23230
C          6.07674         3.51307         0.13644
C          7.32183         1.39089         0.49055
C          7.29599         4.21723         0.24403
C          6.08791         6.39930        -0.05693
C          6.04702         7.76737         0.06288
C          7.32418         5.65276         0.15608
C          7.28999         8.48387         0.55751
C          6.05644        10.67305         0.07382
C          6.04551        12.06843         0.14141
C          7.27588         9.97390         0.32890
C          7.18257        12.80315         0.81178
C          6.14730        14.96848         0.01637
C          6.21544        16.35986        -0.37613
C          7.28269        14.24198         0.31760
C          7.47403        17.02961        -0.44205
C          6.29981        19.14914        -0.83253
C          7.49962        18.48241        -0.55016
C          8.49980         2.07230         0.60323
C          8.53553         3.51062         0.42347
C          9.72522         1.34554         1.10722
C          9.75335         4.20944         0.41766
C          8.53846         6.33287         0.22259
C          8.52962         7.81642        -0.04517
C          9.77950         5.63453         0.34019
C          9.81073         8.49814         0.34412
C          8.49794        10.69645         0.48804
C          8.49815        12.06212         0.71597
C          9.78572         9.96436         0.32029
C          9.71588        12.81311         1.21320
C          8.57671        14.88100         0.27218
C          8.65085        16.25086        -0.19134
C          9.73682        14.23463         0.69255
C          9.94001        16.78756        -0.38149
C          8.64012        19.31310        -0.19927
C          9.94575        18.92147        -0.39872
C         11.02811         1.99552         0.66009
C         11.03350         3.46870         0.37332
C         12.31897         1.29866         1.04864
C         12.29888         4.22559         0.43683
C         11.01621         6.34682         0.39246
C         11.00578         7.79856         0.42597
C         12.26444         5.63938         0.43083
C         12.25574         8.51197         0.66976
C         11.07762        10.69355         0.61459
C         11.04024        12.10969         1.01412
C         12.27022         9.88009         0.86629
C         12.26878        12.78244         1.15044
C         10.96261        15.00834         0.91030
C         11.08360        16.33895         0.30424
C         12.28066        14.27302         1.22188
C         12.27208        17.11761         0.42576
C         11.17919        19.38461         0.17065
C         12.28119        18.56814         0.38273
C         13.56821         2.06917         0.69262
C         13.53836         3.50114         0.50818
C         14.76199         1.38270         0.65901
C         14.76528         4.18608         0.40109
C         13.50225         6.38668         0.45279
C         13.50652         7.76259         0.64051
C         14.76446         5.65116         0.06016
C         14.74469         8.52181         0.67003
C         13.50504        10.58144         1.36663
C         13.48695        12.07223         1.10138
C         14.76378         9.87625         0.90738
C         14.76485        12.79329         1.11847
C         13.49550        15.02367         0.90394
C         13.50148        16.40419         0.69772
C         14.76854        14.29041         0.97449
C         14.77825        17.11566         0.59098
C         13.51781        19.26496         0.93312
C         14.80311        18.52839         0.64465
C         16.01968         2.05511         0.51420
C         16.00166         3.49273         0.44384
C         17.23670         1.36374         0.46457
C         17.24049         4.19862         0.43281
C         16.03671         6.34358         0.46396
C         16.04133         7.83430         0.29384
C         17.23133         5.64594         0.51916
C         17.21977         8.48833         0.97384
C         16.02256        10.61934         0.91119
C         16.02618        12.06443         0.87599
C         17.22856         9.95374         0.93884
C         17.22471        12.75008         0.69063
C         15.95003        14.94009         0.33250
C         15.99526        16.41911         0.37087
C         17.21775        14.15436         0.22485
C         17.21363        17.09277         0.19023
C         16.01684        19.20283         0.53228
C         17.23457        18.51152         0.29300
C         18.47617         2.05294         0.37458
C         18.46767         3.49590         0.39223
C         19.71077         1.37360         0.29460
C         19.70691         4.20496         0.38361
C         18.50982         6.32173         0.66318
C         18.51566         7.75393         1.03870
C         19.69676         5.63710         0.53716
C         19.77159         8.53171         0.89932
C         18.49922        10.66944         1.30356
C         18.48667        12.09354         0.82629
C         19.75148         9.93125         0.89700
C         19.67718        12.79266         0.67554
C         18.49069        14.89593         0.14476
C         18.40931        16.32972        -0.37803
C         19.65311        14.22111         0.40765
C         19.77205        17.10388        -0.36173
C         18.47748        19.21911         0.22631
C         19.69628        18.56653         0.05936
C         20.93843         2.07073         0.22645
C         20.93572         3.50788         0.29264
C         22.17823         1.38641         0.08220
C         22.17589         4.22717         0.18173
C         21.00349         6.33996         0.82193
C         20.96354         7.83004         0.58682
C         22.19872         5.64726         0.22113
C         22.12383         8.53497         0.27398
C         20.94938        10.66064         0.67819
C         20.95275        12.10078         0.68825
C         22.14771         9.95601         0.36442
C         22.17152        12.79721         0.57665
C         20.91140        14.96127         0.63842
C         20.89612        16.44075         0.42547
C         22.19877        14.24553         0.63983
C         22.20118        17.12617         0.35264
C         20.92798        19.24398         0.18600
C         22.18167        18.57173         0.24510
C         23.39373         2.07009        -0.04320
C         23.39703         3.52596        -0.01588
C         24.61832         1.37649        -0.27070
C         24.58836         4.24859        -0.20357
C         23.35278         6.35091        -0.12427
C         23.26971         7.83088        -0.39785
C         24.57588         5.65709        -0.35814
C         24.57619         8.57642        -0.30368
C         23.37198        10.67142         0.17213
C         23.40070        12.08016         0.34879
C         24.58103         9.93738        -0.14539
C         24.63696        12.79424         0.29711
C         23.38594        14.96315         0.66252
C         23.36883        16.40971         0.59365
C         24.69709        14.20443         0.84270
C         24.61668        17.17473         0.75825
C         23.39433        19.28329         0.30112
C         24.63553        18.62170         0.47949
C         25.83907         2.04616        -0.39549
C         25.91176         3.53298        -0.10748
C         27.05206         1.38153        -0.64184
C         26.96999         4.20952        -0.96717
C         25.80883         6.38218        -0.61655
C         25.77341         7.87011        -0.89693
C         27.01534         5.70581        -0.74210
C         27.08239         8.56450        -0.61495
C         25.79143        10.72595        -0.59676
C         25.83174        12.14104        -0.06222
C         27.09379         9.96666        -0.44915
C         27.04665        12.84114        -0.11119
C         25.90920        14.95526         0.33977
C         25.97498        16.39814         0.58170
C         27.06138        14.27617        -0.04606
C         27.11013        17.17545         0.15663
C         25.86266        19.28877         0.43068
C         27.10021        18.58903         0.25136
C         28.28299         2.08710        -0.75455
C         28.29384         3.50779        -0.81734
C         29.53153         1.39035        -0.80539
C         29.49472         4.22807        -0.86264
C         28.27224         6.39741        -0.78923
C         28.28992         7.83628        -0.66122
C         29.49651         5.67779        -0.84507
C         29.53739         8.53589        -0.63199
C         28.31041        10.65503        -0.38196
C         28.37055        12.12778        -0.05303
C         29.54258         9.96127        -0.53166
C         29.45102        12.83287        -0.86733
C         28.29775        14.99619        -0.33994
C         28.22264        16.48751        -0.58133
C         29.47878        14.33045        -0.59457
C         29.54183        17.19808        -0.41381
C         28.31065        19.29544         0.03005
C         29.53652        18.60746        -0.19932
C         30.71707         2.08139        -0.86526
C         30.73623         3.50922        -0.87130
C         31.94746         4.23223        -0.88889
C         30.74832         6.36882        -0.81993
C         30.76763         7.81698        -0.73238
C         31.94806         5.61932        -0.85996
C         31.97171         8.55287        -0.73001
C         30.78425        10.68655        -0.61728
C         30.78371        12.13181        -0.70983
C         31.97788         9.94255        -0.68812
C         31.93196        12.88738        -0.83261
C         30.73232        15.04163        -0.74997
C         30.75231        16.50317        -0.59933
C         31.90133        14.30772        -0.89721
C         31.96336        17.23423        -0.57782
C         30.76996        19.30897        -0.20942
C         31.96192        18.62060        -0.40085
O         11.03005         2.41992        -0.72056
O         11.48311        14.87833         2.29391
O          2.47379        14.98057         0.68677
O         14.98444        13.71364         2.31020
O         25.41365        16.78415         1.89724
O         17.70230         7.97418         2.27000
O         20.66451        15.91730         1.76249
O         16.30832        14.33794        -0.96693
O         10.09973        17.83260        -1.29155
O         10.57832        10.52711        -0.79368
O          7.37526         8.29737         1.99969
H          6.62287         8.76988         2.41407
O          2.90949         1.84317         1.30589
H          2.15378         2.46964         1.32882
O         13.37277        19.39193         2.36466
H         13.34747        18.48979         2.74665
O          4.65688        14.18182         1.71013
H          3.82179        14.64857         1.94976
O         25.58945         7.99948        -2.36508
H         24.65680         7.71163        -2.54399
O         25.59716        10.86204        -2.04586
H         25.66248         9.94692        -2.42209
O         28.79923        12.22977         1.34077
H         28.07884        11.88556         1.90955
O         13.48772        10.45554         2.83687
H         14.19028        11.04237         3.19166
O         21.20318         6.20047         2.27578
H         20.41359         6.57815         2.71991
O         29.07961        12.69516        -2.26960
H         29.82601        13.02244        -2.81340
O         26.34422         3.66880         1.27779
H         25.66219         3.25600         1.84775
O          9.63406         1.34242         2.53633
H         10.51396         1.08950         2.89904
O         14.76130         5.71897        -1.43727
H         15.39514         5.03996        -1.75607
O         26.55441         4.03053        -2.35489
H         27.18245         4.52267        -2.92385
O          6.86054        12.82837         2.24583
H          7.71531        12.98431         2.72373
O          8.40373         7.99287        -1.49296
H          9.26466         7.76330        -1.90234
O         24.88033        14.07182         2.29988
H         24.99508        14.99084         2.64305
O         12.32324         1.08262         2.47544
H         13.21894         0.78688         2.74070
O         18.05196        16.18317        -1.78976
H         17.29391        15.54033        -1.82700
O         27.87455        16.61181        -2.02058
H         28.57389        16.14632        -2.52751
O         18.50498        10.70329         2.77560
H         18.30967         9.78137         3.06980
O          9.54342        12.93529         2.68729
H         10.22309        13.59537         2.98059
O         20.31348        17.12154        -1.70578
H         19.55576        16.99734        -2.32514
O          5.08096         5.57881        -2.04914
H          5.41836         6.45156        -2.34368
O          3.47171        11.81831         1.34021
H          3.91304        12.57528         1.80700
O          5.01308        13.11664        -1.76448
H          4.80587        12.27961        -2.24964
O          2.19300         5.48457         1.31202
H          2.11324         6.39266         1.67578
O          3.77346        10.82810        -2.17952
H          3.80297         9.93262        -2.57821
O         22.92213         7.89645        -1.85314
H         22.71302         8.83514        -2.05431
O         16.24838         8.07455        -1.13816
H         15.61237         7.48140        -1.60976
H          0.89661         1.58078        -2.22461
H          0.51483         3.96565        -1.58406
H          2.72367         0.27957        -1.17723
H          0.16545         5.82838        -0.74885
H          0.19663         8.25265        -0.93994
H          0.16804        10.16658        -0.61385
H          0.22107        12.59632        -0.94786
H          0.52979        14.39948        -1.92913
H          0.71749        16.80864        -2.36885
H          1.88557        18.93831        -2.17953
H          4.92176         0.25465         0.17727
H          3.99035        20.20102        -1.76120
H          7.30037         0.30289         0.65476
H          6.31156        20.24323        -0.94637
H          9.71358         0.27750         0.72851
H          8.42739        20.27702         0.28723
H         12.34649         0.28962         0.53922
H         11.25344        20.44140         0.47298
H         14.76092         0.28700         0.77472
H         13.57617        20.30589         0.52831
H         17.23553         0.26393         0.50022
H         16.03633        20.30032         0.60929
H         19.71675         0.27358         0.26625
H         18.47143        20.30324         0.41936
H         22.17443         0.28670         0.03920
H         20.91912        20.33817         0.31204
H         24.58894         0.28242        -0.39336
H         23.38576        20.37849         0.19938
H         27.06189         0.28232        -0.70875
H         25.86944        20.38403         0.32770
H         29.52997         0.29085        -0.78063
H         28.31764        20.39228         0.10858
H         31.67420         1.54019        -0.89269
H         32.90134         3.68547        -0.90925
H         32.91631         6.13723        -0.85424
H         32.93749         8.03443        -0.79409
H         32.94605        10.45970        -0.73358
H         32.92070        12.40693        -0.82723
H         32.86627        14.82418        -0.98879
H         32.92568        16.72033        -0.70196
H         30.77379        20.39722        -0.05430
H         32.91598        19.16618        -0.40068
