         294
 CSIRO Nanostructure Databank - Neutral Graphene Oxide Data Set
C          1.26526         2.12257        -0.82468
C          1.15304         3.44567        -0.52564
C          2.49805         1.40521        -0.67339
C          2.27988         4.15960         0.18761
C          1.01130         6.43421         0.25385
C          1.01930         7.79130         0.14740
C          2.29284         5.69099        -0.02860
C          2.24826         8.55045         0.04901
C          1.10280        10.75899        -0.17381
C          1.10435        12.15853         0.01485
C          2.26411         9.95405        -0.06608
C          2.27400        12.91235         0.13351
C          1.10754        15.14336         0.04056
C          1.09964        16.47703        -0.20248
C          2.33339        14.36387         0.15236
C          2.33985        17.26718        -0.24319
C          2.39492        18.49148        -1.08495
C          3.67948         2.05828        -0.34770
C          3.66136         3.57308        -0.23147
C          4.94321         1.42207        -0.45488
C          4.78389         4.11463         0.64873
C          3.44917         6.36489         0.72244
C          3.48201         7.85062         0.53637
C          4.66724         5.55057         1.22185
C          4.83877         8.49442         0.34043
C          3.51451        10.69900         0.27464
C          3.54770        12.16023        -0.18011
C          4.79110         9.98995         0.62728
C          4.80695        12.80828         0.39406
C          3.55828        15.03421         0.10361
C          3.63323        16.50639        -0.01738
C          4.85239        14.31924         0.21115
C          4.83117        17.05500        -0.79026
C          3.54834        19.09550        -1.41676
C          4.85342        18.61171        -0.82671
C          6.15252         2.10517        -0.23567
C          6.09832         3.41848         0.47499
C          7.39584         1.50230        -0.48258
C          7.35341         4.23524         0.50690
C          6.03358         6.33775         1.24326
C          6.00807         7.87818         1.17451
C          7.35313         5.61242         1.11822
C          7.26819         8.48987         0.54687
C          6.16215        10.72168         0.70494
C          6.07314        12.01646        -0.13156
C          7.29873         9.81801         0.25633
C          7.36652        12.81343        -0.20686
C          6.16704        15.00190        -0.02135
C          6.20931        16.51531        -0.30074
C          7.39350        14.17388        -0.27380
C          7.32598        16.97058        -1.24832
C          6.12422        19.16196        -1.44509
C          7.35816        18.49873        -1.29295
C          8.63746         2.14836        -0.25752
C          8.65174         3.58616         0.12036
C          9.84957         1.50278        -0.47131
C          9.94023         4.21433         0.48823
C          8.63302         6.33985         0.97573
C          8.57320         7.71949         0.37382
C          9.90839         5.54050         1.25137
C          9.58202         8.68302         0.94912
C          8.56634        10.44734        -0.34076
C          8.60582        11.99297        -0.41643
C          9.79340         9.92512         0.42761
C          9.93927        12.68408        -0.30534
C          8.68720        14.97692        -0.21452
C          8.68037        16.30641        -0.97290
C          9.96068        14.19408        -0.45946
C          9.93565        17.11180        -0.89875
C          8.56639        19.19751        -1.21491
C          9.74250        18.57443        -0.51159
C         11.10228         2.16032        -0.26939
C         11.11257         3.53993         0.22545
C         12.29452         1.47937        -0.48479
C         12.41198         4.15433         0.45026
C         11.22861         6.29161         1.08770
C         11.34463         7.61574         1.44574
C         12.45511         5.58583         0.74854
C         12.44649         8.49751         1.11480
C         11.07644        10.63240         0.56878
C         11.15828        11.97026         0.17135
C         12.32010         9.85426         0.84300
C         12.42576        12.77262         0.26280
C         11.24070        14.96825        -0.44755
C         11.32068        16.48783        -0.64386
C         12.48054        14.26480         0.02874
C         12.17947        17.24165         0.37836
C         11.04956        19.31135        -0.51711
C         12.20122        18.71700        -0.02646
C         13.57788         2.05400        -0.17942
C         13.57464         3.42050         0.32342
C         14.75422         1.36433        -0.41635
C         14.87608         4.04617         0.63074
C         13.64999         6.26832         0.76879
C         13.76763         7.73094         1.15724
C         14.94153         5.54936         0.67301
C         14.81006         8.43104         0.26607
C         13.56081        10.63398         0.40241
C         13.54609        12.07211         1.01987
C         14.89481         9.90195         0.69313
C         14.89101        12.82027         0.87739
C         13.56156        15.06619         0.78123
C         13.55580        16.60010         0.52971
C         14.86661        14.29569         0.58603
C         14.62176        17.42393         0.78201
C         13.40815        19.45568         0.04177
C         14.64201        18.84766         0.38974
C         16.11408         1.77693         0.11006
C         16.14205         3.27522         0.48382
C         17.29144         1.33061        -0.74888
C         17.34622         4.03726        -0.03884
C         16.17787         6.28206         0.21431
C         16.15908         7.75452         0.11366
C         17.31810         5.50064        -0.37402
C         17.33170         8.45841        -0.07776
C         16.04370        10.60968        -0.03088
C         16.11104        12.05429         0.43226
C         17.34370         9.87510         0.21982
C         17.41444        12.71845        -0.00519
C         16.04053        14.82486         0.12861
C         15.83204        16.99321         1.54177
C         17.33556        14.16313         0.39559
C         17.13072        17.58293         1.12024
C         15.85484        19.52946         0.26773
C         17.15384        18.76720         0.19637
C         18.52111         1.91151        -0.66688
C         18.58807         3.17203         0.14181
C         19.75151         1.35579        -1.23703
C         19.93511         4.31361        -1.59586
C         18.49745         6.30835        -0.93218
C         18.49194         7.79412        -0.78039
C         19.82919         5.63956        -1.10847
C         19.78928         8.50575        -0.97222
C         18.45094        10.54949         0.76098
C         18.55365        11.97332         0.68644
C         19.88380         9.80755        -1.42150
C         19.70964        12.69603         1.04899
C         18.35069        14.65412         1.15399
C         18.28627        16.91150         1.34357
C         19.71639        14.12141         1.10189
C         19.68879        17.39684         1.10676
C         18.48304        19.48859         0.31002
C         19.64207        18.80425         0.52811
C         20.90985         2.04523        -1.42678
C         21.04440         3.49507        -1.24852
C         22.15364         4.11677        -0.65787
C         21.01609         6.28253        -0.65334
C         21.12137         7.78694        -0.87169
C         22.17334         5.50725        -0.47301
C         22.06321         8.64208        -0.05762
C         21.05403        10.64056        -1.11567
C         21.06635        12.02403        -1.32593
C         22.04002         9.98269        -0.24722
C         22.04037        12.96929        -0.73578
C         20.55427        14.97203         0.07952
C         20.73785        16.47509         0.41919
C         21.84964        14.20420        -0.19670
C         21.85918        17.12268         0.00766
C         20.95103        19.38834         0.28222
C         22.01094        18.56669         0.06736
O         18.19909        15.72580         2.05144
O          9.47244        16.58170        -2.18168
O         15.71066        16.24610         2.51440
O         12.96812        13.34774        -0.98182
O          3.87228        10.37705         1.66655
O         18.00589         7.13757        -2.05073
O         15.96233         5.96190         1.66167
O          9.36985        12.28283        -1.63162
O          5.30621         3.24151         1.69807
O          6.75124         5.85169         2.44162
O         15.61388         3.48909         1.80967
O          5.66966        14.85493         1.35466
O          3.11036         7.26449         1.81482
O          3.07057        17.31044         1.04061
O         10.25692         8.22924         2.08312
O         10.68719        14.44292        -1.69555
O         16.90918         4.49951        -1.37742
O         15.87169        12.33893         1.85038
O         19.38043         3.39235         1.03945
O          7.86898         4.38791        -0.86144
O          6.49405        11.03745         2.06455
H          6.18569        10.27917         2.61822
O         17.53933        12.63287        -1.46973
H         17.06791        13.40877        -1.84330
O         13.39351        10.81504        -1.01383
H         13.33014         9.92159        -1.42165
O         21.69405         7.81891        -2.23857
H         21.06682         7.34491        -2.82570
O          9.79732         5.14317         2.66112
H          9.71809         5.96501         3.19250
O         13.22383        11.98814         2.40887
H         14.05755        11.72907         2.86637
O         16.26873         1.02879         1.35270
H         15.84963         1.57614         2.05870
O         19.73969        15.04928        -1.10861
H         19.76420        14.17235        -1.56819
O          6.54238        17.13053         0.96922
H          5.99501        16.66841         1.65256
O         19.05166         3.80372        -2.48454
H         18.27371         4.40035        -2.58804
O          4.65509        12.65040         1.80727
H          5.34988        13.18218         2.25398
O         20.16337        12.60161        -2.15319
H         19.42946        11.96751        -2.35839
O          4.53013        16.56646        -2.11259
H          5.28829        16.76672        -2.71331
O         14.16470         7.69111         2.55771
H         14.95282         7.08794         2.61164
O         19.39771         9.80315         1.37143
H         20.13765        10.37729         1.67217
O          8.57714         9.98483        -1.71553
H          9.15101        10.62149        -2.21343
O         13.21929        14.97388         2.20124
H         14.03153        15.27645         2.68742
O         20.82050        12.01892         1.48837
H         21.50826        12.66710         1.74373
O          5.88403         8.37249         2.52177
H          6.01707         7.61547         3.13551
O          4.91122        19.16900         0.50939
H          5.69247        18.76812         0.96217
O         20.19630        17.55983         2.47396
H         19.92408        16.75888         2.97449
O         12.05770        16.66356        -1.87393
H         11.59890        16.11230        -2.54894
O          9.31609        18.51462         0.90155
H         10.05594        18.10854         1.42352
O         11.57061        17.13523         1.69564
H         11.96818        16.34708         2.15553
O         15.82683        10.56399        -1.46708
H         16.41149        11.26324        -1.85556
O          7.00873        16.52418        -2.59299
H          7.84158        16.62093        -3.11423
O          8.78873        15.38747         1.18576
H          8.08101        16.05804         1.36502
O          4.02646         4.01277        -1.56264
H          3.39406         3.62168        -2.20019
O          8.88379         7.46577        -1.02146
H          8.75584         8.30542        -1.53744
O         16.05828        15.91461        -0.68190
H         16.96909        16.22393        -0.87812
O          5.90236        11.51124        -1.47432
H          5.82781        12.26091        -2.10135
O         17.19525        18.22691        -1.19295
H         17.05084        18.98093        -1.80374
O          5.10980         8.30814        -1.06641
H          5.80126         8.94339        -1.35610
O          2.09039         3.94627         1.59892
H          2.16445         2.98629         1.77912
O         18.80717        10.39019        -2.04515
H         18.09960         9.71951        -2.16035
O         14.26365         8.33239        -1.08471
H         14.90911         8.78863        -1.67708
O         15.21182         9.99370         2.08686
H         14.71101         9.30346         2.59015
O          4.33443         5.36170         2.60985
H          4.94662         4.67850         2.96577
O          2.54407         5.96312        -1.43657
H          1.78192         5.62673        -1.95190
O          3.58640        12.19835        -1.63371
H          2.76384        11.77661        -1.96181
H          0.39626         1.57704        -1.22180
H          0.17965         3.94984        -0.62414
H          2.51527         0.32772        -0.89152
H          0.06858         5.89002         0.41099
H          0.06652         8.33845         0.20966
H          0.12730        10.27343        -0.32186
H          0.12329        12.65334         0.06125
H          0.14818        14.60830         0.06716
H          0.14754        16.98845        -0.41250
H          1.43981        18.85864        -1.49294
H          4.97848         0.37356        -0.78943
H          3.54679        19.98826        -2.06012
H          7.41080         0.47717        -0.88369
H          6.15880        20.26200        -1.53485
H          9.85207         0.44914        -0.78861
H          8.54831        20.29406        -1.32648
H         12.25936         0.44484        -0.85805
H         11.06948        20.37740        -0.79347
H         14.68094         0.34267        -0.82181
H         13.40092        20.50938        -0.27773
H         17.17176         0.38019        -1.29382
H         15.83553        20.57328        -0.08613
H         19.73782         0.27744        -1.46218
H         18.54214        20.52942        -0.05067
H         21.81004         1.48064        -1.72097
H         23.03284         3.51635        -0.38405
H         23.10233         5.99570        -0.14713
H         22.81514         8.18212         0.60007
H         22.77656        10.61870         0.26828
H         23.07500        12.58620        -0.68648
H         22.76238        14.66320         0.22166
H         22.69161        16.56535        -0.44827
H         21.04864        20.47932         0.18016
H         22.99589        18.98852        -0.17935
