         598
 CSIRO Nanostructure Databank - Neutral Graphene Oxide Data Set
C         23.22805        69.96923         2.14987
C         23.24599        71.37524         2.26015
C         22.10370        72.09545         2.70968
C         23.30754        74.19778         2.56235
C         22.14459        73.48118         2.84856
C         25.53580        65.69311         1.18291
C         25.53867        67.12498         1.25901
C         24.38282        67.83661         1.63798
C         25.54232        69.99010         1.33377
C         24.36850        69.25379         1.71272
C         25.58691        71.41650         1.46971
C         24.44392        72.10361         1.94001
C         25.66866        74.24156         1.84274
C         24.47844        73.53203         2.11055
C         27.75966        61.42466         0.06714
C         27.78536        62.80919         0.15851
C         26.64179        63.54174         0.62660
C         27.94247        65.64153         0.58742
C         26.65311        64.93756         0.78515
C         27.96625        67.14613         0.62534
C         26.70706        67.87755         0.88563
C         27.83804        70.05682         0.38579
C         26.67639        69.27553         0.86633
C         27.95205        71.48917         0.73666
C         26.79932        72.15125         1.19850
C         28.04375        74.27970         1.16077
C         26.84091        73.57847         1.40554
C         30.39128        57.21150         0.50575
C         30.24343        58.54352        -0.10293
C         29.06473        59.25079         0.04758
C         30.17302        61.39694        -0.44883
C         28.87383        60.61743        -0.56032
C         30.13119        62.83751        -0.91867
C         28.95875        63.57323        -0.28500
C         30.15038        65.72397        -0.69315
C         29.02350        64.92923        -0.13139
C         30.19832        67.18830        -0.48631
C         29.12125        67.85100         0.02341
C         30.37146        70.04010         0.09215
C         29.07201        69.33032        -0.02743
C         30.38239        71.50759         0.18068
C         29.17213        72.18752         0.52836
C         30.45085        74.29188         0.57331
C         29.22062        73.61179         0.74984
C         32.94043        52.92817         0.06000
C         32.78997        54.31325        -0.30390
C         31.66723        54.98484         0.30043
C         32.60522        57.16360        -1.36345
C         31.11686        56.21843        -0.12108
C         32.61392        58.54196        -1.08945
C         31.42625        59.19493        -0.66578
C         32.68921        61.40927        -0.98057
C         31.47719        60.66350        -0.55620
C         32.68484        62.81811        -0.99493
C         31.45012        63.56818        -0.56147
C         32.69886        65.72083        -1.15750
C         31.42098        64.99786        -1.06560
C         32.67377        67.17807        -1.33513
C         31.40181        67.93171        -0.96096
C         32.79105        70.11304        -0.69119
C         31.59067        69.31630        -0.41972
C         32.82270        71.46409        -0.30942
C         31.60456        72.17782         0.04418
C         32.87948        74.28560         0.13215
C         31.64316        73.60981         0.23741
C         35.40091        48.72336         0.51909
C         35.32344        50.05193         0.01171
C         34.15356        50.80236         0.18866
C         35.11669        52.68105        -1.12402
C         34.02076        52.13125        -0.29827
C         35.03222        54.17893        -1.47643
C         33.81132        54.92509        -1.07760
C         35.12275        57.08780        -1.62397
C         33.80234        56.33127        -1.50788
C         35.10623        58.56518        -1.46428
C         33.86764        59.27412        -1.29289
C         35.07438        61.42459        -1.79754
C         33.86000        60.67962        -1.29682
C         35.10908        62.86989        -1.36843
C         33.88915        63.56285        -1.15382
C         35.17438        65.70711        -1.07917
C         33.90456        65.01348        -1.11498
C         35.23104        67.16396        -1.09525
C         33.98704        67.91239        -1.35493
C         35.30589        70.05656        -0.76214
C         34.02362        69.43212        -1.12049
C         35.31123        71.44404        -0.43319
C         34.07459        72.16583        -0.30469
C         35.33864        74.25113        -0.00282
C         34.09682        73.58330        -0.07421
C         37.80822        44.58713         1.65137
C         37.77715        45.87940         1.08970
C         36.59674        46.64936         1.04731
C         37.76372        48.47981        -0.20913
C         36.55955        47.94081         0.47881
C         37.72680        49.87467        -0.76119
C         36.48626        50.68272        -0.60125
C         37.61749        52.64132        -1.62468
C         36.41485        51.96552        -1.08680
C         37.58999        54.15760        -1.69544
C         36.32162        54.92866        -1.52046
C         37.62989        57.05174        -1.28565
C         36.36000        56.29545        -1.42878
C         37.60457        58.54956        -1.32307
C         36.32052        59.26579        -1.46156
C         37.58482        61.36343        -1.57673
C         36.36744        60.68756        -1.52435
C         37.58560        62.83598        -1.61294
C         36.32463        63.55295        -1.28918
C         37.62343        65.61778        -0.56903
C         36.35650        64.95051        -1.04622
C         37.68897        67.07323        -0.97929
C         36.43261        67.86222        -1.01104
C         37.74916        69.97967        -0.60600
C         36.50176        69.30564        -0.83835
C         37.76823        71.35613        -0.25722
C         36.54947        72.09916        -0.20627
C         37.75919        74.17776         0.34956
C         36.56582        73.53337         0.03378
C         40.45683        40.64025         3.31066
C         40.37080        41.93878         2.76597
C         39.11346        42.61428         2.50998
C         40.25916        44.69995         1.87689
C         39.01936        43.89855         1.96732
C         40.32325        45.88527         0.97425
C         39.01798        46.48624         0.53366
C         40.29276        48.54165        -0.17240
C         39.08319        47.88273         0.07920
C         40.24625        49.91942        -0.71722
C         39.02310        50.54351        -0.98520
C         40.22981        52.68310        -1.61177
C         38.94897        51.90387        -1.55524
C         40.18004        54.14988        -1.34792
C         38.87909        54.88029        -1.38643
C         40.06820        57.04168        -1.77159
C         38.91254        56.35377        -1.54645
C         40.03570        58.50225        -2.04265
C         38.84209        59.27544        -1.67144
C         40.11670        61.38857        -1.73840
C         38.84581        60.66117        -1.70710
C         40.15322        62.76753        -1.41078
C         38.90400        63.55077        -1.45757
C         40.11734        65.49621        -0.55392
C         38.92120        64.90942        -0.90055
C         40.08375        66.91291        -0.09824
C         38.99329        67.74351        -0.73569
C         40.28818        69.89572        -0.15255
C         39.02362        69.24003        -0.67483
C         40.17093        71.29237         0.32657
C         38.99100        71.99590         0.18591
C         40.24826        74.09458         0.79946
C         38.92727        73.37187         0.81880
C         43.18537        36.84707         4.92028
C         43.06550        38.06730         4.22013
C         41.82422        38.73947         4.11670
C         42.90493        40.58092         2.91240
C         41.71152        39.98657         3.46007
C         42.84151        41.88848         2.36330
C         41.59719        42.57037         2.40537
C         42.77305        44.65236         1.62478
C         41.57128        43.99034         2.10900
C         42.69642        46.01018         1.42050
C         41.54049        46.72069         0.93328
C         42.87179        48.65841        -0.10035
C         41.57052        47.92785         0.21624
C         42.79119        50.02356        -0.70225
C         41.47847        50.65885        -0.92619
C         42.70910        52.72667        -1.54290
C         41.49571        52.00879        -1.27788
C         42.71366        54.14765        -1.77432
C         41.47526        54.91033        -1.44090
C         42.60871        57.10723        -2.16912
C         41.39946        56.38739        -1.69305
C         42.61197        58.46614        -2.26805
C         41.33753        59.24884        -2.26852
C         42.56296        61.37182        -1.76174
C         41.33811        60.69184        -1.93513
C         42.57647        62.68766        -1.25702
C         41.37017        63.41440        -1.07380
C         42.55550        65.42801        -0.11749
C         41.37861        64.79323        -0.59429
C         42.58672        66.74548         0.43774
C         41.31576        67.55252         0.46000
C         42.12481        69.70116         1.39785
C         41.32408        69.05652         0.49566
C         42.36838        71.12243         1.38604
C         41.34450        71.91732         0.90102
C         42.68164        73.94551         1.30925
C         41.41396        73.37160         0.98689
C         45.75943        34.24811         5.70365
C         44.54860        34.93119         5.68816
C         45.55761        36.67932         4.28453
C         44.41685        36.15592         4.97886
C         45.46528        37.91725         3.58179
C         44.23253        38.62261         3.57712
C         45.28688        40.40484         2.22914
C         44.14735        39.88000         2.92803
C         45.17664        41.69203         1.59112
C         44.00844        42.45660         1.72884
C         44.99437        44.30006         0.19053
C         43.88895        43.81403         1.11589
C         45.30889        45.73043        -0.21693
C         44.43497        46.73684         0.22485
C         45.18152        48.40245        -1.27245
C         44.14870        47.93008        -0.44710
C         45.09412        49.75667        -1.94143
C         43.94568        50.60983        -1.43012
C         45.11906        52.63561        -2.26022
C         43.90403        51.95562        -1.74101
C         45.11761        54.13646        -2.45261
C         43.84619        54.84613        -2.17689
C         45.16192        57.03550        -2.62861
C         43.82497        56.30004        -2.46133
C         45.17285        58.50240        -2.44567
C         43.86714        59.22249        -2.49830
C         45.12138        61.40931        -1.94472
C         43.82237        60.70120        -2.19330
C         45.12789        62.76720        -1.31794
C         43.83796        63.29071        -0.77481
C         45.12912        65.34009         0.05605
C         43.82455        64.65124        -0.13719
C         45.08421        66.62678         0.62628
C         43.84242        67.26791         0.88855
C         45.04254        69.39580         1.51522
C         43.95533        68.52823         1.59829
C         44.98364        70.84315         1.89178
C         43.65671        71.69200         1.84465
C         45.03702        73.76305         1.92534
C         43.79109        73.16316         1.68081
C         46.86940        34.74218         5.00828
C         47.88412        36.46041         3.52774
C         46.78119        35.95249         4.28901
C         47.79250        37.62685         2.80421
C         46.58476        38.41727         2.83244
C         47.54714        39.93144         1.07167
C         46.47838        39.64848         2.13144
C         47.52040        41.34323         0.35324
C         46.22170        42.11907         0.67548
C         47.84612        44.21703        -0.78022
C         46.00142        43.24560        -0.05699
C         47.70217        45.56864        -0.95448
C         46.40484        46.25282        -0.98350
C         47.60942        48.30328        -1.85075
C         46.36528        47.62574        -1.37676
C         47.60404        49.79266        -1.88796
C         46.43031        50.48298        -1.85312
C         47.66403        52.74442        -1.83658
C         46.39028        51.96580        -1.82966
C         47.66926        54.14699        -2.36622
C         46.39391        54.90842        -2.37911
C         47.67711        57.05146        -2.32593
C         46.42962        56.28360        -2.41498
C         47.63548        58.45029        -2.29939
C         46.37309        59.16635        -2.30382
C         47.63723        61.35113        -1.60941
C         46.37248        60.59165        -1.85220
C         47.59231        62.78985        -1.23777
C         46.39886        63.38072        -0.84695
C         47.61788        65.23952         0.26503
C         46.34187        64.65259        -0.18689
C         47.61003        66.62055         0.91303
C         46.29133        67.27676         1.28634
C         47.49174        69.50967         1.23745
C         46.30234        68.79188         1.18996
C         47.47253        70.93969         1.50698
C         46.25281        71.59935         1.77421
C         47.47898        73.71455         2.08632
C         46.25357        73.02297         1.97653
C         48.97953        38.04704         1.96212
C         50.00261        40.28790         1.64713
C         48.90917        39.50823         1.58489
C         49.99803        41.72330         1.29598
C         48.73138        42.28499         0.66266
C         50.12219        44.28182         0.04952
C         48.94192        43.56548        -0.09190
C         50.16586        45.70259        -0.36065
C         48.91406        46.39058        -0.79574
C         50.20850        48.42884        -1.55741
C         48.94205        47.65412        -1.57769
C         50.20536        49.74595        -1.87350
C         48.91649        50.48501        -1.75167
C         50.23418        52.66779        -2.07728
C         48.95848        51.98032        -1.76210
C         50.20945        54.14663        -1.90792
C         48.96573        54.89599        -2.28437
C         50.16000        57.08416        -2.15097
C         48.95612        56.37941        -2.24620
C         50.19417        58.51525        -2.20221
C         48.90467        59.21833        -2.35184
C         50.18241        61.35029        -1.68508
C         48.91349        60.73198        -2.09515
C         50.17186        62.78869        -1.34060
C         48.87090        63.51794        -1.12186
C         50.05793        65.40359        -0.02423
C         48.88657        64.75934        -0.31704
C         50.04422        66.76658         0.49579
C         48.81434        67.43772         0.76775
C         49.95631        69.58682         1.07832
C         48.76618        68.84298         1.02476
C         49.95874        70.97666         1.44387
C         48.70722        71.65323         1.60819
C         49.95149        73.71735         2.16612
C         48.71697        73.04442         1.96124
C         51.27673        42.41054         1.09849
C         52.56964        44.45054         0.52874
C         51.34348        43.70366         0.58156
C         52.67970        45.76047         0.00112
C         51.48194        46.32163        -0.69308
C         52.61879        48.59607        -0.87419
C         51.47821        47.70710        -1.25856
C         52.70303        49.93213        -1.47742
C         51.48965        50.48049        -2.21471
C         52.70231        52.69291        -2.14885
C         51.42305        51.98797        -2.08905
C         52.63325        54.11009        -2.67656
C         51.49554        54.87780        -2.00192
C         52.73522        57.13606        -2.18730
C         51.46104        56.38052        -1.99721
C         52.71026        58.62279        -2.21773
C         51.39476        59.24695        -2.08031
C         52.63296        61.20623        -1.13251
C         51.36135        60.64338        -1.73597
C         52.57781        62.68481        -0.86776
C         51.41874        63.38529        -0.81756
C         52.50359        65.27837         0.45054
C         51.39510        64.87292        -0.51470
C         52.49770        66.72534         0.85108
C         51.25110        67.46997         0.60415
C         52.52693        69.59734         1.12699
C         51.22747        68.91551         0.77902
C         52.42408        70.88913         1.84895
C         51.16664        71.64847         1.74816
C         52.43261        73.70643         2.33361
C         51.18326        73.03330         2.10739
C         53.86489        46.49905        -0.00200
C         55.10138        48.73405        -0.42767
C         53.87780        47.94818        -0.28076
C         55.08442        50.05912        -0.84993
C         53.85964        50.66970        -1.37050
C         55.19202        52.73091        -2.01983
C         53.88023        52.04811        -1.86738
C         55.24918        54.18012        -2.43376
C         53.95634        54.90058        -2.71495
C         55.26607        57.14680        -2.54292
C         53.96175        56.39641        -2.62938
C         55.21183        58.64632        -2.33961
C         53.89300        59.31862        -2.14862
C         55.16444        61.40112        -1.37200
C         53.87604        60.82837        -1.96338
C         55.15213        62.65281        -0.75307
C         53.84944        63.22790        -0.32468
C         55.06843        65.23553         0.72828
C         53.79708        64.51503         0.41088
C         55.03916        66.69746         1.13932
C         53.76339        67.44711         1.10839
C         55.01331        69.54779         1.47527
C         53.77683        68.80883         1.27688
C         54.99587        70.92255         1.78502
C         53.72749        71.59529         2.14753
C         54.91331        73.75006         2.34176
C         53.68081        73.06737         2.27785
C         56.29017        50.83809        -0.83678
C         57.55168        52.90416        -1.24576
C         56.36607        52.13975        -1.32897
C         57.62941        54.27245        -1.59152
C         56.44696        54.99188        -2.06099
C         57.75044        57.10401        -2.07714
C         56.47585        56.36157        -2.19814
C         57.73931        58.63005        -1.98160
C         56.44475        59.36089        -1.91415
C         57.70704        61.47763        -1.49832
C         56.40973        60.68972        -1.54698
C         57.63017        62.76210        -0.70484
C         56.35428        63.36121        -0.39055
C         57.50255        65.40145         0.44152
C         56.32602        64.64782         0.23277
C         57.49936        66.78558         0.78355
C         56.28705        67.47680         1.02543
C         57.48395        69.62243         1.31437
C         56.25953        68.87252         1.26350
C         57.44459        71.02709         1.61664
C         56.20353        71.66812         1.85761
C         57.37367        73.78049         2.32304
C         56.16077        73.08424         2.18489
C         58.82595        54.98287        -1.36119
C         60.09468        57.08361        -1.24489
C         58.92995        56.37850        -1.55370
C         60.13684        58.51218        -1.17680
C         58.93645        59.27659        -1.39883
C         60.10926        61.29525        -0.71459
C         58.91635        60.64091        -1.12340
C         60.08883        62.69682        -0.44418
C         58.80627        63.37326        -0.33899
C         59.96373        65.55679        -0.03420
C         58.81358        64.68096         0.39996
C         59.93174        66.97370         0.37115
C         58.73914        67.56136         0.77193
C         59.93959        69.74219         1.05167
C         58.71250        68.97547         1.06495
C         59.90498        71.14268         1.43012
C         58.66965        71.76309         1.71618
C         59.84296        73.82722         2.33430
C         58.62895        73.14777         2.12113
C         61.32313        59.17821        -0.81440
C         62.54871        61.29458        -0.33674
C         61.34829        60.57967        -0.61368
C         62.54708        62.69407        -0.16625
C         61.28476        63.37113        -0.18468
C         62.45772        65.55121         0.47338
C         61.27467        64.85220        -0.14964
C         62.49023        67.03636         0.18252
C         61.15194        67.77136         0.22359
C         62.41539        69.96106         0.48768
C         61.13910        69.16681         0.65705
C         62.38520        71.29536         1.20911
C         61.12912        71.86834         1.55468
C         62.30772        73.84443         2.40228
C         61.08676        73.20071         2.09175
C         63.75654        63.45650         0.01362
C         64.94379        65.59889         0.43217
C         63.77520        64.84366         0.23573
C         64.92883        67.00881         0.70450
C         63.70093        67.75760         0.61406
C         64.86409        69.83297         1.08715
C         63.66080        69.13632         0.80747
C         64.83997        71.25916         1.21156
C         63.58986        71.98296         1.44101
C         64.70772        73.93487         2.70083
C         63.55628        73.27034         2.12497
C         66.11565        67.71631         0.96915
C         67.32323        69.83692         1.38308
C         66.11502        69.12277         1.14077
C         67.32157        71.24070         1.43812
C         66.07864        71.89684         1.18898
C         67.24985        73.97347         2.88917
C         66.00864        73.77750         2.23579
C         68.45985        72.01792         1.85797
C         68.40134        73.23863         2.53185
O         46.98871        60.58856        -0.50236
O         55.51789        53.12174        -3.40752
O         66.11606        73.26426         0.92164
O         46.89428        52.61172        -0.60308
O         43.81165        63.41004         0.68641
O         52.28215        56.78127        -0.82864
O         37.53470        48.70961        -1.64947
O         43.91359        46.65691         1.50378
O         39.66809        52.11970        -2.82873
O         55.12769        65.62411         2.14362
O         53.93619        55.72495        -3.93168
O         43.71836        43.78676        -0.38133
O         39.77745        45.57747        -0.34389
O         37.69543        57.81733        -0.01713
O         48.47588        54.33794        -3.56861
O         38.62191        67.29517        -2.08094
O         55.38721        58.05622        -3.68576
O         34.05993        68.84242        -2.47031
O         31.74481        67.71066        -2.34502
O         49.59427        63.64453        -2.41679
O         40.91740        44.83875         3.15801
O         45.06948        53.18138        -3.59872
O         34.78726        53.13906        -2.47167
O         28.40013        66.34260         1.79788
O         34.41767        56.61842        -2.81971
O         48.98169        42.49160         2.07539
O         40.49493        58.86242        -3.40355
O         38.24230        63.42905        -2.79001
O         51.75316        46.55830        -2.12370
O         30.44499        65.33212        -2.10110
O         50.97298        54.46397        -0.69578
O         30.91378        61.14908         0.76666
O         43.75811        60.21223        -3.57542
O         58.03220        57.95112        -3.24550
O         52.84493        48.63034         0.56049
O         41.65877        55.84066        -0.33121
O         48.88553        60.21420        -3.44913
O         45.18189        62.61283        -2.77951
O         31.26241        69.36273         1.03144
O         44.21090        71.17502         3.08583
O         44.38801        56.59651        -3.78875
O         49.38854        46.55930         0.58258
O         52.14389        65.60838         1.80248
O         28.16588        69.83156        -1.05818
O         52.98832        70.86615         3.19716
O         46.77120        43.44273        -1.19585
O         52.05342        69.66431        -0.24539
O         49.03053        51.25689        -0.48559
O         60.60412        65.37692        -1.33867
O         31.41817        56.51505        -1.50542
O         40.23505        67.04902         1.35014
O         47.78607        65.40597         1.72439
O         61.92058        67.52283        -1.04837
O         48.33506        47.59492        -2.91115
O         37.50780        53.34569        -2.90032
O         43.09972        49.81840         0.76890
O         39.44789        54.42225        -0.10329
O         53.72920        63.25063         1.16915
O         40.05128        69.76445        -1.58932
O         42.83868        68.93596         2.31935
O         47.21622        38.93407         0.04511
H         46.23924        38.88039        -0.02507
O         51.70097        65.54039        -1.77131
H         51.06966        65.18291        -2.44022
O         29.96335        62.77035        -2.35130
H         29.96451        63.70309        -2.68977
O         52.77397        60.56383         0.16550
H         52.99835        61.24352         0.83904
O         44.81122        49.53086        -3.35403
H         45.51473        48.95385        -3.72064
O         47.61066        41.11321        -1.05562
H         47.50474        40.14320        -1.20958
O         37.50602        65.63986         0.89011
H         37.58178        64.72342         1.22836
O         62.51036        70.26570        -0.94307
H         62.42063        69.40476        -1.41910
O         34.93831        61.44259        -3.26095
H         35.70031        61.94229        -3.62635
O         53.70987        61.44476        -3.26397
H         54.44040        61.14464        -3.84490
O         62.22734        65.48857         1.91743
H         62.10995        64.54792         2.16970
O         50.20357        37.72635         2.62208
H         50.19806        38.14824         3.50552
O         38.65164        73.12703         2.26516
H         39.40829        72.61118         2.61962
O         52.18685        53.94100        -4.04960
H         52.68405        54.58313        -4.61065
O         57.93163        61.89418        -2.88758
H         58.09248        61.08538        -3.41986
O         46.09919        67.04962         2.71642
H         46.46983        66.15621         2.90974
O         59.14473        64.37174         1.80890
H         58.33045        64.03066         2.23793
O         31.52269        63.72142         0.87998
H         31.46595        62.81406         1.27257
O         51.69829        50.20924        -3.63673
H         52.36179        50.84847        -3.97519
O         28.56023        60.43754        -1.97313
H         28.80005        61.27414        -2.44061
H         23.32683        75.28973         2.68844
H         25.69002        75.33196         1.98787
H         28.07028        75.36839         1.31678
H         30.48796        75.37883         0.73976
H         32.91334        75.37301         0.29403
H         35.35351        75.33731         0.17157
H         37.76591        75.26687         0.50871
H         40.25604        75.19021         0.90161
H         42.79148        75.04016         1.28686
H         45.10206        74.86179         1.92027
H         47.46728        74.79772         2.27679
H         49.93779        74.78622         2.42608
H         52.40642        74.79422         2.49917
H         54.91479        74.83822         2.50554
H         57.35366        74.84505         2.60006
H         59.82647        74.86306         2.70432
H         62.27276        74.83058         2.88897
H         64.53200        74.54831         3.59801
H         67.31160        74.66091         3.74556
H         22.31623        69.41775         2.42341
H         21.18408        71.54359         2.95126
H         21.25054        74.01748         3.19653
H         24.59512        65.16760         1.40711
H         23.47384        67.28021         1.91100
H         26.85236        60.89011         0.38939
H         25.71843        62.98452         0.84573
H         29.99801        57.06024         1.52064
H         28.20858        58.76548         0.53845
H         32.15475        52.48156         0.68787
H         31.16326        54.45048         1.12040
H         34.50242        48.30491         0.99768
H         33.31108        50.35762         0.73918
H         36.85094        44.11842         1.92711
H         35.67858        46.24507         1.49962
H         39.54572        40.12828         3.65358
H         38.18846        42.04285         2.68207
H         42.30404        36.42524         5.42604
H         40.93011        38.28375         4.56759
H         45.84453        33.30331         6.25852
H         43.67832        34.52628         6.22423
H         47.81640        34.18397         5.01402
H         48.82413        35.88898         3.50495
H         48.95981        37.44736         1.01082
H         50.94912        39.84355         1.99605
H         52.19961        41.88174         1.38108
H         53.46435        43.99420         0.97944
H         54.79569        46.03286         0.35649
H         56.06573        48.25602        -0.19853
H         57.18938        50.39099        -0.38610
H         58.44767        52.42903        -0.81788
H         59.70023        54.43569        -0.97771
H         60.99071        56.52176        -0.94103
H         62.24910        58.59685        -0.69355
H         63.50048        60.74418        -0.29735
H         64.71610        62.91839        -0.03267
H         65.92113        65.09615         0.36900
H         67.07088        67.17262         1.01368
H         68.25689        69.27880         1.54530
H         69.43798        71.51226         1.83520
H         69.34912        73.58126         2.97815
