         732
 CSIRO Nanostructure Databank - Neutral Graphene Oxide Data Set
C         23.87360        25.45812        -3.56236
C         22.80173        26.26920        -3.91785
C         23.64684        28.06517        -2.50353
C         22.68275        27.55617        -3.38855
C         23.50346        29.38439        -1.90215
C         22.39125        30.21805        -2.20380
C         23.17807        32.00778        -0.74150
C         22.27044        31.50614        -1.67648
C         23.09474        33.34165        -0.20580
C         21.94835        34.14102        -0.39389
C         22.92267        35.98112         0.85709
C         21.85787        35.42563         0.14599
C         22.81018        37.34642         1.55322
C         21.58889        38.12621         1.13974
C         22.87807        40.02476         0.26995
C         21.62941        39.35541         0.57056
C         22.98369        41.32300        -0.28646
C         21.80120        42.03474        -0.76417
C         23.01527        44.20702        -0.84101
C         21.80827        43.33947        -1.10409
C         23.17404        45.43821        -1.72627
C         22.14905        45.92063        -2.49926
C         23.38389        47.90873        -3.15952
C         22.28308        47.12672        -3.27316
C         26.04781        23.71396        -2.65108
C         25.98756        25.08444        -2.29916
C         24.87140        25.92434        -2.68177
C         25.79990        27.76637        -1.30440
C         24.77521        27.25310        -2.15697
C         25.66115        29.08722        -0.73613
C         24.48746        29.85364        -1.01023
C         25.45412        31.77011         0.30760
C         24.20838        31.07431        -0.16741
C         25.42126        33.12892         0.69825
C         24.21412        33.89906         0.49665
C         25.34994        35.87249         1.39959
C         24.14704        35.24411         0.95241
C         25.35652        37.37146         1.68352
C         24.08711        38.06384         1.23206
C         25.33339        39.90895         0.21207
C         24.08495        39.30940         0.59308
C         25.45000        41.27508        -0.16112
C         24.24971        41.98378        -0.37744
C         25.53227        44.21432        -0.50035
C         24.30719        43.38435        -0.97861
C         25.61369        45.55594        -1.20977
C         24.45112        46.14120        -1.69494
C         25.79237        48.25848        -2.25676
C         24.47816        47.51919        -2.25255
C         26.07904        49.33268        -3.24932
C         28.19581        23.45035        -1.52541
C         27.10486        22.91715        -2.25301
C         28.18227        24.83669        -1.19123
C         27.05131        25.63633        -1.53602
C         28.03065        27.49647        -0.26005
C         26.96749        26.98051        -1.04221
C         27.77763        28.71178         0.56799
C         26.68119        29.62597         0.08235
C         27.70100        31.56088         1.27127
C         26.60400        30.98748         0.54234
C         27.75537        32.95717         1.54272
C         26.59652        33.74414         1.24702
C         27.80869        35.91593         1.62968
C         26.56315        35.17572         1.46905
C         27.85968        37.24743         1.21596
C         26.58624        37.91255         1.00377
C         28.30362        40.04181         0.02673
C         26.43889        39.00525         0.18789
C         28.10883        41.41104         0.09149
C         26.74182        42.07453         0.11992
C         28.05306        44.21925        -0.27743
C         26.83102        43.39741        -0.65810
C         28.07628        45.59782        -0.72612
C         26.89954        46.22490        -1.21805
C         28.19882        48.26412        -1.70572
C         26.99600        47.57242        -1.71223
C         28.18512        49.74124        -2.03065
C         27.23741        50.00304        -3.18751
C         30.43056        20.46282        -0.98193
C         29.31840        21.22493        -1.29597
C         30.47827        23.25527        -0.58918
C         29.31861        22.63137        -1.13363
C         30.47345        24.65788        -0.29781
C         29.30011        25.43023        -0.52143
C         30.39054        27.39571         0.57337
C         29.22970        26.78111        -0.05228
C         30.33310        28.75672         1.07433
C         29.02757        29.42187         1.03325
C         30.49812        31.69319         2.11135
C         28.72731        30.61407         1.66629
C         30.32998        33.02888         1.94630
C         28.98114        33.66841         2.07863
C         30.34772        35.95227         2.17314
C         29.00638        35.18773         2.09380
C         30.29201        37.36717         1.64567
C         29.13639        37.98051         1.17837
C         30.38782        40.15017         1.21658
C         29.28006        39.36232         0.78199
C         30.39008        41.55879         0.96094
C         29.21695        42.19998         0.50968
C         30.38538        44.45298         0.61496
C         29.17043        43.62828         0.27076
C         30.51606        45.67437        -0.26332
C         29.34531        46.27409        -0.78176
C         30.65091        48.25867        -1.48705
C         29.41978        47.61452        -1.32459
C         30.72818        49.60804        -1.98645
C         29.55361        50.33257        -2.24968
C         30.82146        52.32837        -2.84311
C         29.63245        51.72045        -2.59388
C         32.86427        18.88409        -0.34378
C         32.84586        20.29387        -0.35871
C         31.63260        21.06649        -0.54545
C         32.85634        23.14060         0.05236
C         31.65115        22.47853        -0.35045
C         32.82983        24.52882         0.34712
C         31.64567        25.28958         0.21378
C         32.84741        27.37370         0.90012
C         31.61674        26.68985         0.58709
C         32.83056        28.77452         1.20340
C         31.54938        29.42002         1.38685
C         32.89943        31.64464         1.52789
C         31.60961        30.90255         1.56443
C         32.90015        33.11392         1.83663
C         31.58712        33.82044         1.87775
C         32.80666        35.97315         1.46650
C         31.47932        35.23751         1.39751
C         32.77916        37.34655         1.58235
C         31.53262        38.08048         1.68969
C         32.75334        40.28002         2.12387
C         31.54452        39.48379         1.69082
C         32.83612        41.63374         1.42157
C         31.64020        42.29274         1.04298
C         32.89996        44.34772         0.64786
C         31.66801        43.65596         0.68537
C         32.95209        45.70984         0.13793
C         31.78618        46.29024        -0.39882
C         33.14809        48.30144        -1.10014
C         31.91836        47.46393        -1.34028
C         33.17914        49.63190        -1.62148
C         32.01027        50.24365        -2.13002
C         33.33711        52.35837        -2.59106
C         32.10287        51.53738        -2.90714
C         33.40182        53.71820        -2.96606
C         35.30408        18.83488        -0.16213
C         34.05499        18.18516        -0.15939
C         35.32015        20.26125        -0.29794
C         34.08669        20.98714        -0.22423
C         35.32542        23.07787         0.16562
C         34.08865        22.39805         0.02516
C         35.35901        24.47163         0.64047
C         34.05588        25.20931         0.79841
C         35.32740        27.35761         0.96778
C         34.08993        26.68443         0.86462
C         35.32092        28.78789         1.13332
C         34.08305        29.45845         1.30007
C         35.38504        31.66709         1.34383
C         34.16858        30.88676         1.78399
C         35.34484        33.08436         1.24030
C         34.11052        33.84927         1.38383
C         35.25681        35.98163         0.85997
C         34.03934        35.22897         1.24563
C         35.28554        37.47993         1.00817
C         33.98384        38.17759         1.35668
C         35.31324        40.18232         2.21669
C         34.02782        39.53364         1.85656
C         35.25282        41.77773         2.18630
C         34.05306        42.33355         1.43285
C         35.29000        44.52552         1.40884
C         34.08701        43.68738         1.04444
C         35.38106        45.81334         0.62034
C         34.22963        46.38702         0.06078
C         35.55104        48.40409        -0.57991
C         34.29763        47.70280        -0.55261
C         35.57846        49.72631        -1.12728
C         34.42438        50.35984        -1.59580
C         35.65775        52.53245        -1.81979
C         34.46825        51.75142        -2.02487
C         35.66796        53.93296        -2.09660
C         34.51670        54.49559        -2.70003
C         37.72883        16.52561         1.61164
C         36.52046        17.05743         1.16232
C         37.78205        18.41228        -0.33747
C         36.51868        18.07011         0.18439
C         37.77867        20.46175        -0.78320
C         36.53023        21.03812        -0.41397
C         37.76609        23.22599        -0.42299
C         36.52380        22.42376        -0.13059
C         37.79322        24.59825         0.20474
C         36.60651        25.25110         0.52564
C         37.82252        27.34438         0.85393
C         36.59159        26.65093         0.81533
C         37.82477        28.77241         1.21801
C         36.56187        29.51806         1.19688
C         37.84442        31.66733         1.02617
C         36.60583        30.94681         1.21791
C         37.80535        33.10381         0.96845
C         36.56361        33.78092         1.05108
C         37.81967        35.95746         1.05847
C         36.56082        35.23311         0.83309
C         37.77763        37.36694         1.44590
C         36.54225        38.16216         1.32986
C         37.78195        40.24272         1.68450
C         36.55917        39.52569         1.64841
C         37.79016        41.65557         1.74207
C         36.56100        42.39040         1.73236
C         37.81579        44.44540         1.35719
C         36.58033        43.74051         1.41157
C         37.83839        45.82647         0.99337
C         36.64783        46.47389         0.53191
C         37.98997        48.46174        -0.03682
C         36.72750        47.77890        -0.05700
C         38.09462        49.79749        -0.67134
C         36.86323        50.44166        -1.24737
C         38.01645        52.66811        -1.13026
C         36.85966        51.90813        -1.39230
C         37.96223        54.08991        -1.21710
C         36.82083        54.71680        -1.72330
C         37.79708        56.94254        -1.35051
C         36.78482        56.16857        -1.79923
C         40.17373        16.03602         3.23651
C         40.18413        16.48824         1.90174
C         38.99149        17.01059         1.20291
C         40.22799        18.83440        -0.17002
C         39.03454        18.03303         0.19659
C         40.22047        20.22590        -0.40680
C         39.02836        21.03774        -0.47823
C         40.24056        23.15468        -0.16210
C         39.05136        22.45343        -0.25460
C         40.25083        24.56232         0.08083
C         39.03545        25.28538         0.27610
C         40.29881        27.40372         0.46665
C         39.05542        26.68411         0.58535
C         40.34240        28.83731         0.57354
C         39.14961        29.54700         1.06321
C         40.26502        31.68432         0.47265
C         39.08628        30.99860         0.85608
C         40.20005        33.14230         0.32507
C         38.99615        33.85191         0.74815
C         40.30294        35.99288         0.96277
C         39.02898        35.27463         0.91078
C         40.33865        37.37213         1.29576
C         39.08439        38.09168         1.60037
C         40.31193        40.27859         1.71658
C         39.06171        39.56487         1.27039
C         40.30629        41.64080         1.83882
C         39.03916        42.36727         1.72414
C         40.23266        44.54937         2.08845
C         39.02974        43.75774         1.65288
C         40.29655        45.89598         1.40844
C         39.10451        46.51041         0.97591
C         40.35778        48.64666         0.72163
C         39.12126        47.86939         0.51736
C         40.38689        50.07035         0.30348
C         39.22052        50.68194        -0.35387
C         40.46779        52.80814        -0.49370
C         39.22922        52.02670        -0.64689
C         40.43404        54.23755        -0.65773
C         39.05679        54.86835        -0.50204
C         40.32833        57.15090        -0.84970
C         39.02280        56.37559        -0.75324
C         40.35474        58.51304        -1.40079
C         42.60772        15.81931         3.23580
C         41.36699        15.65685         3.86203
C         42.66459        16.29197         1.91094
C         41.43424        16.47990         1.25878
C         42.70870        18.80168         0.27494
C         41.50513        18.18008        -0.04013
C         42.78651        20.22515        -0.08062
C         41.52082        20.94489        -0.49695
C         42.63214        23.05870         0.40672
C         41.55067        22.48515        -0.52482
C         42.71491        24.55190         0.21909
C         41.49725        25.26123         0.15945
C         42.74414        27.36964         0.01340
C         41.50048        26.69022         0.20642
C         42.69594        28.83483        -0.19997
C         41.48633        29.56567         0.23437
C         42.73690        31.74473         0.11588
C         41.50419        31.00906         0.25026
C         42.77501        33.16048         0.29006
C         41.52064        33.92416         0.28273
C         42.76186        35.99879         0.88917
C         41.52533        35.32512         0.73164
C         42.77154        37.39251         1.20063
C         41.54778        38.07250         1.40358
C         42.81749        40.25111         1.73328
C         41.55362        39.46693         2.00131
C         42.82163        41.64870         1.92756
C         41.55866        42.39173         2.01552
C         42.76439        44.54994         2.35829
C         41.53660        43.76753         2.07099
C         42.68877        46.00814         2.05636
C         41.54646        46.59728         1.44315
C         42.83879        48.68273         1.07138
C         41.62953        47.95898         1.02812
C         42.95428        50.02024         0.43387
C         41.69127        50.70427        -0.00478
C         42.96906        52.80556        -0.35853
C         41.66296        52.15143        -0.22239
C         42.93106        54.27168        -0.71294
C         41.62084        54.98776        -0.69153
C         42.80697        57.18459        -0.88047
C         41.61105        56.41750        -0.77869
C         42.77018        58.52564        -1.25535
C         41.54121        59.16367        -1.57924
C         45.13613        16.16105         1.52091
C         43.90654        16.81748         1.30773
C         45.16156        18.81323         0.62120
C         43.90946        18.11342         0.70758
C         45.21122        20.25165         0.51396
C         44.00227        20.97834         0.30096
C         45.16317        23.10348         0.53515
C         43.96489        22.36627         0.32637
C         45.18372        24.52814         0.40346
C         43.94617        25.23453         0.21532
C         45.24954        27.32545        -0.16549
C         43.94313        26.65401         0.00459
C         45.27913        28.82322        -0.31852
C         43.99208        29.59566        -0.34979
C         45.20557        31.72364        -0.06150
C         44.00746        31.05090        -0.04182
C         45.26879        33.23980        -0.06011
C         43.97890        33.88833         0.39561
C         45.24203        35.97864         0.88702
C         44.00210        35.27577         0.71239
C         45.23625        37.40852         1.12283
C         44.01791        38.11188         1.27495
C         45.24872        40.25944         1.40534
C         44.02052        39.53973         1.48072
C         45.25282        41.66238         1.62796
C         44.06948        42.35039         1.93233
C         45.41904        44.50064         2.07351
C         44.12370        43.78808         2.31507
C         45.58291        45.86877         2.38925
C         43.75210        46.87380         2.34536
C         45.27346        48.79424         1.73580
C         43.97321        48.12051         1.70794
C         45.22048        50.28359         1.54003
C         44.12206        50.88023         0.73957
C         45.33776        53.02657         0.53874
C         44.15472        52.19820         0.32550
C         45.34072        54.41705         0.17385
C         44.19793        55.04542        -0.51786
C         45.20172        57.30284         0.04327
C         44.13430        56.55026        -0.62880
C         46.34233        16.74216         1.14373
C         47.62151        18.80901         0.49025
C         46.37917        18.09864         0.75573
C         47.67612        20.21238         0.67086
C         46.42464        20.95772         0.77861
C         47.44274        23.20865         1.28910
C         46.35023        22.38774         0.86215
C         47.59952        24.53592         0.95153
C         46.42500        25.25864         0.51358
C         47.57640        27.47977         0.91431
C         46.46564        26.63819         0.31101
C         47.69489        28.88068         0.32162
C         46.53705        29.54487        -0.01922
C         47.78194        31.75239        -0.06782
C         46.48807        31.00229        -0.26229
C         47.76091        33.16808         0.31416
C         46.45199        33.77704         0.74223
C         47.71717        35.94844         0.88465
C         46.48395        35.28765         0.79753
C         47.76985        37.38557         1.32200
C         46.46792        38.12242         1.17460
C         47.71361        40.22832         0.99177
C         46.48506        39.52861         1.22607
C         47.64022        41.68823         0.86217
C         46.59499        42.35303         1.72239
C         47.74761        44.58785         1.28458
C         46.54924        43.85038         1.56394
C         47.77242        46.01191         1.40415
C         46.61332        46.68075         1.89086
C         47.82535        48.83881         2.06852
C         46.48917        48.13739         1.87202
C         47.78983        50.37823         1.91265
C         46.48777        51.09592         1.65777
C         47.74106        53.19105         1.01422
C         46.51612        52.44672         1.04494
C         47.71001        54.59567         0.77272
C         46.46022        55.22352         0.44014
C         46.33267        56.66686         0.43972
C         49.85483        18.80425        -0.50339
C         48.75532        18.12016        -0.02256
C         49.97481        20.20626        -0.29270
C         48.95321        20.84675         0.45238
C         50.21493        22.99675         0.42772
C         49.26279        22.14511         0.95030
C         50.33059        24.42007         0.96146
C         48.92895        25.20648         1.14105
C         50.20566        27.45432         0.86804
C         48.90742        26.71291         1.08173
C         50.19667        28.88773         0.55352
C         48.96373        29.58558         0.38145
C         50.21933        31.70620         0.30339
C         49.00577        30.98828         0.22403
C         50.21110        33.14190         0.27683
C         48.95178        33.84780         0.43425
C         50.17602        35.99099         0.54851
C         48.95393        35.27564         0.67345
C         50.17536        37.43186         0.57158
C         48.97289        38.13414         0.80705
C         50.14835        40.28765         0.47377
C         48.93039        39.54847         0.73297
C         50.14432        41.70396         0.40114
C         48.88435        42.46860         0.52426
C         50.11657        44.63279         0.60806
C         48.93655        43.91284         0.84768
C         50.16506        46.04827         0.76439
C         48.97934        46.76226         1.13869
C         50.21101        48.89753         1.10922
C         48.99181        48.16488         1.32818
C         50.22785        50.30779         1.15979
C         49.03938        51.09202         1.51192
C         50.18631        53.26797         1.08082
C         48.99640        52.53754         1.16469
C         50.13753        54.67184         0.91439
C         48.92711        55.32259         0.78021
C         52.05666        20.44974        -1.63011
C         51.06902        21.01738        -0.78519
C         52.22380        23.20412        -1.01102
C         51.15170        22.41648        -0.49054
C         52.31965        24.61627        -0.66111
C         51.34262        25.22627         0.14716
C         52.57609        27.43215        -0.11836
C         51.46749        26.65652         0.44724
C         52.63710        28.83435         0.07713
C         51.42865        29.56276         0.38564
C         52.67979        31.69826         0.19732
C         51.45907        30.99410         0.31749
C         52.66833        33.14028         0.10211
C         51.40740        33.85403         0.18733
C         52.58299        36.01890         0.02506
C         51.39365        35.29883         0.24869
C         52.60788        37.43602         0.11018
C         51.39118        38.14885         0.34693
C         52.61412        40.29821         0.26392
C         51.38292        39.57985         0.34926
C         52.58590        41.71563         0.28242
C         51.35675        42.41068         0.30029
C         52.62389        44.64953         0.07236
C         51.31883        43.88980         0.15090
C         52.61154        46.09064         0.35155
C         51.41428        46.77016         0.60964
C         52.68996        48.89708         0.77795
C         51.42725        48.19585         0.78832
C         52.73156        50.30800         0.95346
C         51.46314        51.03700         0.85799
C         52.75923        53.15834         1.33426
C         51.48370        52.55016         0.93148
C         53.06942        21.21751        -2.15842
C         54.30646        23.37252        -2.35121
C         53.18566        22.60166        -1.85459
C         54.49105        24.71145        -1.89449
C         53.47492        25.35237        -1.10386
C         54.81440        27.46411        -1.07514
C         53.61752        26.74918        -0.78634
C         54.96244        28.80766        -0.69404
C         53.84616        29.53754        -0.20501
C         55.10428        31.68418        -0.21917
C         53.91463        30.98072        -0.03339
C         55.16958        33.16112         0.09020
C         53.84727        33.84655        -0.08078
C         55.07897        36.02965        -0.36089
C         53.78264        35.28445        -0.51485
C         55.08059        37.43053        -0.23730
C         53.84572        38.15353        -0.02542
C         55.10557        40.25386         0.08028
C         53.85977        39.56639         0.11804
C         55.15679        41.69079         0.39728
C         53.84597        42.47155         0.43864
C         55.11877        44.61183         0.30512
C         53.89606        43.91882         0.22228
C         55.14498        46.04051         0.34512
C         53.88686        46.81826         0.04261
C         55.15160        48.89887         0.66005
C         53.91177        48.21800         0.57183
C         55.17687        50.30253         0.93879
C         53.95064        51.01609         1.04678
C         53.90987        52.44080         1.33362
C         56.34450        23.55209        -3.67783
C         55.25216        22.82324        -3.24608
C         56.60055        24.85354        -3.17291
C         55.68237        25.40451        -2.25170
C         57.25827        27.42025        -1.90285
C         55.96427        26.71239        -1.61798
C         57.32746        28.88402        -1.66383
C         56.28490        29.46913        -0.80045
C         57.48622        31.72204        -1.10918
C         56.36022        30.97426        -0.52644
C         57.62264        33.16790        -0.68109
C         56.30949        33.89929        -0.56611
C         57.50853        36.04112        -0.84624
C         56.29345        35.29955        -0.58793
C         57.53691        37.44605        -0.66581
C         56.32270        38.15175        -0.31523
C         57.58477        40.30303        -0.11379
C         56.31272        39.55566        -0.15324
C         57.54460        41.77095        -0.20655
C         56.38584        42.45587         0.10647
C         57.59916        44.59664         0.23951
C         56.37559        43.89081         0.22890
C         57.62562        46.01403         0.48358
C         56.36136        46.74796         0.47782
C         57.70371        48.88303         0.41794
C         56.37612        48.16262         0.53705
C         57.62611        50.32511         0.83671
C         56.45685        50.96779         1.04585
C         58.41041        25.27677        -4.80603
C         57.74566        25.62067        -3.64128
C         59.14957        27.73282        -3.56529
C         58.31060        26.74426        -2.78922
C         59.35311        29.04959        -3.04949
C         58.38042        29.64664        -2.13969
C         59.61585        31.82465        -2.33812
C         58.48073        31.07626        -1.83043
C         59.69418        33.26367        -2.12424
C         58.66126        33.93620        -1.44911
C         59.79248        36.09454        -1.80300
C         58.66657        35.35219        -1.34370
C         59.85699        37.51758        -1.54239
C         58.75334        38.15111        -0.91005
C         60.05661        40.31711        -0.94000
C         58.88066        39.55649        -0.50986
C         60.07738        41.79459        -0.77560
C         58.77784        42.52717        -0.47755
C         60.06868        44.56869         0.12663
C         58.83775        43.91630         0.00783
C         60.09230        45.97292         0.50763
C         58.84073        46.66563         0.67723
C         60.15355        48.77865         1.12088
C         58.80895        48.10438         1.16368
C         59.46329        26.06878        -5.31859
C         59.79237        27.28803        -4.73210
C         60.44694        29.82374        -3.46763
C         60.58719        31.16204        -3.09245
C         60.77093        34.03214        -2.64652
C         60.83586        35.39780        -2.45632
C         61.00749        38.27745        -1.86065
C         61.08141        39.65461        -1.59535
C         61.30602        42.49710        -0.39566
C         61.28812        43.80742        -0.02701
C         61.28822        46.68083         0.63265
C         61.30042        48.07848         0.92403
O         43.45711        44.11531         3.56894
O         42.42532        20.41753        -1.52567
O         45.44220        27.96318        -1.49910
O         40.74462        33.67714        -0.93617
O         38.42087        37.64040         2.79385
O         43.18172        29.28217        -1.52167
O         58.51793        39.81856         0.90632
O         51.48043        51.88373        -0.38268
O         37.78443        19.24364        -1.47653
O         42.53578        49.99198        -0.97998
O         27.43027        39.27873        -0.75161
O         44.60690        55.73802        -1.75334
O         35.83180        35.59474        -0.43150
O         40.16078        49.76893         1.72200
O         34.50820        38.12037        -0.05559
O         51.84321        44.31226        -1.16139
O         29.50584        30.97767         2.76729
O         44.69226        46.45484         3.29030
O         38.68094        29.09282         2.37707
O         43.13220        53.26849        -1.75648
O         41.47037        16.77833        -0.11403
O         32.17803        31.45657         0.28084
O         59.29397        42.41177        -1.86608
O         39.50143        57.10274         0.42463
O         45.53214        51.02453         2.77154
O         35.02352        42.22320         3.51642
O         48.94132        26.00627         2.37194
O         56.77156        29.97967         0.48579
O         28.74922        34.41504         3.32522
O         37.82292        49.74849        -2.12864
O         47.83634        42.18468        -0.49172
O         51.20196        27.05819         1.84641
O         48.60095        50.98643         2.97217
O         32.37885        33.60776         3.11175
O         54.55081        42.05274         1.67928
O         34.71570        24.59047         1.96461
O         47.24895        31.47186        -1.42946
O         24.78183        48.58793        -1.24292
O         57.09760        26.66587        -0.64324
O         48.46898        22.59730         2.01192
O         25.44385        37.54309         3.13836
H         26.25363        37.07606         3.43970
O         31.06567        35.20462         0.00747
H         31.81986        34.89953        -0.53983
O         24.41732        43.18658        -2.41014
H         25.30031        42.77651        -2.58710
O         53.88481        46.95612        -1.44625
H         53.52719        46.11924        -1.81695
O         22.85584        44.69270         0.52848
H         22.09064        45.30501         0.54491
O         34.24756        30.81564         3.24941
H         35.08311        30.35732         3.48241
O         58.13630        33.09960         0.70281
H         57.35408        32.96296         1.29514
O         23.58086        30.53377         1.07600
H         22.76432        30.06376         0.80092
O         50.88716        24.31259         2.28293
H         50.83618        25.21255         2.68688
O         35.06139        44.86919         2.81504
H         35.02867        43.98527         3.29571
O         27.21712        28.13653         1.82869
H         26.93128        28.88690         2.39447
O         58.07642        48.86601        -0.99157
H         57.33202        49.24287        -1.50619
O         30.73663        36.04429         3.54993
H         30.33053        35.28017         4.02278
O         30.15955        44.95256         1.98112
H         30.99768        45.35699         2.29173
O         41.54221        39.22853         3.45463
H         41.54566        40.10178         3.90145
O         47.07699        42.13144         3.09179
H         46.42856        42.53271         3.70968
O         32.25887        51.13473        -4.32357
H         31.53914        50.49929        -4.52512
O         35.34278        39.82204         3.62976
H         35.29236        40.71572         4.10984
O         27.01769        43.03301        -2.05583
H         27.32729        43.82889        -2.53845
O         39.99008        44.86011         3.50623
H         39.76633        44.02257         3.96482
O         38.73656        54.68071         0.91436
H         39.05894        55.48913         1.37869
O         41.83790        22.89415        -1.87537
H         42.31476        22.14449        -2.30454
O         25.42290        44.54022         0.90573
H         24.50610        44.87875         1.06773
O         45.47296        33.67013        -1.43236
H         44.87628        33.15328        -2.01312
O         32.13450        46.84955        -2.67848
H         32.96470        46.32854        -2.62414
O         48.13878        48.56085         3.46486
H         48.56070        49.37977         3.82436
O         37.68725        23.50855        -1.87493
H         37.93435        22.68866        -2.35411
O         47.08625        27.75378         2.26667
H         47.46148        27.04372         2.84395
O         22.70511        37.10433         2.98302
H         23.61109        37.18163         3.36992
O         42.14495        22.80477         1.76437
H         42.76251        23.23362         2.39355
O         55.49268        33.22490         1.56419
H         54.91264        32.57299         2.01566
O         47.98729        37.30272         2.79669
H         48.01993        38.22404         3.13468
O         27.62057        50.43215        -0.87145
H         26.73546        50.04314        -0.69734
O         58.39704        48.07820         2.56460
H         59.07613        47.58247         3.06814
O         32.63500        40.59931         3.53699
H         33.35691        41.25590         3.74293
O         53.56365        35.22663        -1.98994
H         53.39251        36.14459        -2.29214
O         46.25051        33.31994         2.11925
H         46.88525        33.79881         2.69385
O         59.26512        26.09576        -1.88726
H         58.75779        25.87094        -1.07008
O         39.10015        39.58943        -0.20220
H         39.06517        40.52748        -0.48685
O         26.61184        42.32462         1.54429
H         26.10846        43.16886         1.67440
H         23.93919        24.44995        -3.99170
H         22.03835        25.89383        -4.61317
H         21.81588        28.16316        -3.67972
H         21.62974        29.88198        -2.91872
H         21.44944        32.13965        -2.04162
H         21.07473        33.73106        -0.91890
H         20.92237        35.99056         0.02784
H         20.61261        37.69194         1.40271
H         20.68287        39.87381         0.35749
H         20.86936        41.46184        -0.88124
H         20.87077        43.80703        -1.44091
H         21.19141        45.38596        -2.55600
H         23.44232        48.87114        -3.68611
H         21.45184        47.42660        -3.92645
H         25.23327        23.25499        -3.22670
H         25.34173        49.55474        -4.03490
H         27.09806        21.85550        -2.53353
H         27.47076        50.79434        -3.91602
H         30.38533        19.37493        -1.12709
H         28.42160        20.71538        -1.67289
H         30.83167        53.39327        -3.11209
H         28.70022        52.30323        -2.62263
H         31.92465        18.31908        -0.41134
H         32.54882        54.18877        -3.47262
H         34.02224        17.09098        -0.05898
H         34.50015        55.55545        -2.98682
H         37.69600        15.73033         2.36919
H         35.57534        16.70609         1.59920
H         37.70081        58.03615        -1.39178
H         35.89069        56.65745        -2.20877
H         39.23437        16.00411         3.80567
H         39.40725        59.03618        -1.58360
H         43.53502        15.63258         3.79542
H         41.33490        15.30042         4.90081
H         43.70769        59.08887        -1.35437
H         41.55542        60.19726        -1.95172
H         45.13347        15.15350         1.96026
H         45.08297        58.38340         0.20684
H         47.27878        16.17989         1.26343
H         47.14315        57.25819         0.88838
H         50.65089        18.24680        -1.01489
H         48.69933        17.03060        -0.15666
H         51.07350        55.24373         0.85034
H         48.92062        56.40626         0.60404
H         52.01387        19.38128        -1.87974
H         52.76753        54.20654         1.66678
H         53.80930        20.73257        -2.80750
H         54.84118        52.94826         1.61965
H         57.04855        23.08655        -4.37961
H         55.12408        21.80272        -3.62915
H         58.56371        50.89754         0.88467
H         56.48139        52.03801         1.29397
H         58.08750        24.40641        -5.39445
H         60.20873        49.84937         1.36319
H         59.96079        25.76138        -6.24853
H         60.50905        27.94203        -5.24852
H         61.22748        29.37436        -4.09562
H         61.47372        31.70015        -3.45133
H         61.59564        33.54246        -3.17974
H         61.70980        35.94135        -2.83889
H         61.86387        37.79763        -2.35084
H         61.97302        40.21335        -1.91369
H         62.24707        41.92897        -0.35869
H         62.24334        44.28390         0.23318
H         62.25284        46.18294         0.47143
H         62.27137        48.59354         0.96509
