         317
 CSIRO Nanostructure Databank - Neutral Graphene Oxide Data Set
C         31.34997        32.51076        -3.18453
C         31.22097        33.61114        -2.53208
C         30.91040        36.62267        -1.39132
C         30.91157        37.80101        -1.03353
C         30.59265        40.72828        -0.03273
C         30.58427        41.99209        -0.12376
C         33.37677        29.55455        -2.78718
C         32.28592        30.12318        -2.97368
C         33.03257        31.91026        -1.38289
C         31.59552        31.26684        -2.36801
C         32.96351        33.32028        -0.93000
C         31.87498        34.19910        -1.46051
C         32.69380        36.04435         0.16844
C         31.67461        35.50174        -0.83247
C         32.63778        37.49632         0.65703
C         31.35463        38.34200         0.31301
C         32.75031        40.48728         0.79303
C         31.57040        39.81877         0.36281
C         32.81891        41.90721         0.72227
C         31.73161        42.71921         0.23640
C         33.07163        44.72865         0.58440
C         32.01942        44.13165         0.27685
C         36.02307        27.86904        -2.33822
C         35.71984        29.20491        -1.85938
C         34.55805        29.93617        -2.09375
C         35.42774        31.76105        -0.53335
C         34.44950        31.40182        -1.68796
C         35.41714        33.24177        -0.22072
C         34.25052        34.11035        -0.60874
C         35.23665        36.13297         0.57132
C         33.97536        35.21551         0.46332
C         35.10007        37.27074         1.61499
C         33.83323        38.15265         1.30177
C         35.27194        40.31868         1.16080
C         33.87780        39.69896         1.51426
C         35.27686        41.83806         1.53417
C         34.16210        42.62400         0.82490
C         35.40616        44.70741         1.85689
C         34.04399        44.07330         1.55300
C         35.73854        46.13198         1.71999
C         38.40670        27.74275        -1.87016
C         37.05218        27.19808        -2.19429
C         38.06421        28.95941        -0.94807
C         36.83653        29.74409        -1.16198
C         37.88617        31.62263         0.19034
C         36.85529        31.23250        -0.86063
C         37.72624        32.95743         0.85621
C         36.37726        33.74737         0.82985
C         37.68528        35.89010         0.94800
C         36.49735        35.26931         0.77559
C         37.71052        37.31973         1.39198
C         36.43961        38.05883         1.70615
C         37.77798        40.29026         1.48063
C         36.45695        39.59978         1.86542
C         37.84219        41.64417         1.44385
C         36.65737        42.54115         1.21103
C         38.13955        44.59045         2.05454
C         36.72443        43.92256         1.88502
C         38.17414        46.16952         1.81954
C         36.81623        46.68587         1.99677
C         40.90888        25.02820        -2.03658
C         39.81251        25.66050        -2.21158
C         40.71705        27.54337        -0.91020
C         39.42680        26.79426        -1.22807
C         40.67140        29.04404        -0.70109
C         39.30243        29.62171        -0.32809
C         40.28445        31.50709         1.04550
C         39.23911        31.03361         0.04769
C         40.28678        33.01027         1.24221
C         38.93920        33.72586         1.38025
C         40.20724        35.85569         1.16375
C         38.98857        35.11420         0.71556
C         40.24317        37.27827         1.01170
C         38.95339        38.09786         1.14220
C         40.31153        40.16932         1.05484
C         39.09081        39.52045         1.70470
C         40.23890        41.58554         0.69945
C         39.19700        42.31888         1.51119
C         40.19494        44.50078         0.29055
C         39.25078        43.85241         1.28190
C         40.01392        45.97139         0.01361
C         39.18310        46.83501         0.93648
C         39.69489        48.67960        -0.65790
C         39.10582        48.17996         0.31840
C         43.32858        24.93444        -1.10962
C         42.09804        25.47872        -1.49150
C         43.11159        27.41979        -0.15139
C         42.10548        27.03529        -1.29077
C         43.13407        28.96478         0.05739
C         41.71209        29.46301         0.42447
C         42.72910        31.47086         1.63186
C         41.68586        31.01185         0.62517
C         42.73398        32.96983         1.96256
C         41.43893        33.66780         1.51267
C         42.67271        35.71681         0.90293
C         41.44719        35.17096         1.69036
C         42.72743        37.23594         0.86047
C         41.52402        38.03409         1.30534
C         42.41614        39.96745        -0.24584
C         41.40168        39.42244         0.73472
C         42.57485        41.48573        -0.00791
C         41.23737        42.20754         0.00646
C         42.30640        44.13784        -1.26008
C         41.00177        43.55726        -0.66880
C         42.22732        45.36325        -2.02068
C         40.61436        46.59010        -1.03340
C         41.81861        48.22202        -2.36768
C         41.03126        48.07660        -1.07378
C         44.38391        25.39434        -0.60255
C         45.51608        27.29174         0.71780
C         44.59276        26.91281        -0.43752
C         45.46501        28.83050         0.99501
C         44.24979        29.45136         1.00575
C         45.23284        31.59103         2.28123
C         44.03487        30.75074         1.72799
C         45.27454        32.95737         1.54018
C         44.05895        33.60791         1.48594
C         45.18545        35.69114         0.59702
C         44.02239        35.12576         1.39371
C         45.11479        37.12821         0.17850
C         43.83738        37.86740         0.41531
C         45.02056        39.95301        -0.54692
C         43.76089        39.22723        -0.18932
C         44.94499        41.40519        -0.95507
C         43.63560        42.10869        -0.88327
C         44.75668        44.26843        -1.69738
C         43.53487        43.54319        -1.20502
C         44.56874        45.39885        -2.76289
C         43.26699        46.13895        -2.50786
C         42.79437        47.48904        -2.64876
C         47.92611        27.62310         0.97767
C         46.96643        27.00800         0.52031
C         48.22301        29.05265         1.25271
C         46.71078        29.73966         1.19113
C         48.27844        32.09730         0.00853
C         46.37627        30.56252         2.42027
C         47.88509        32.99443         1.25411
C         46.53210        33.68359         1.18910
C         47.74131        35.86301         0.76868
C         46.49065        34.99316         0.78496
C         47.61558        37.12053        -0.14288
C         46.39184        37.95846         0.30061
C         47.48604        40.05352        -0.55147
C         46.35152        39.35371        -0.30979
C         47.51258        41.52254        -0.81952
C         46.19759        42.23004        -0.93100
C         47.36904        44.16211        -2.11766
C         46.11041        43.62631        -1.48303
C         46.99068        45.41986        -2.69620
C         45.93220        46.06513        -2.79235
C         50.53630        29.06126         0.37225
C         49.16583        29.62288         0.15035
C         50.39514        31.64934         1.15829
C         49.37389        31.12802         0.42333
C         50.44558        33.13515         1.31660
C         49.14951        33.87779         1.09862
C         49.98350        35.71020        -0.49919
C         49.04629        35.11941         0.55013
C         50.16442        37.25098        -0.68143
C         48.90715        37.97698        -0.08375
C         49.97579        40.21745        -0.51872
C         48.77017        39.32007        -0.83191
C         49.93184        41.46848        -1.40042
C         48.73760        42.14820        -1.41787
C         49.87266        43.91597        -2.46341
C         48.56697        43.49802        -2.03296
C         51.40443        29.45850         1.15580
C         52.79676        31.54941         0.85136
C         51.68280        30.84913         1.60887
C         52.71712        32.67565         0.34581
C         51.67968        33.55579        -0.18174
C         52.35840        36.04187         0.34525
C         51.70469        34.98658        -0.05939
C         52.55526        37.36214         0.28582
C         51.38166        38.05901        -0.17237
C         52.30962        40.42757        -0.56905
C         51.31187        39.43013        -0.40495
C         52.37320        41.55007        -1.11700
C         51.25384        41.99099        -2.07663
C         51.01648        43.46164        -2.30670
O         39.48496        37.82585        -0.15749
O         44.97760        36.06261        -0.81429
O         38.41672        28.73756         0.44534
O         44.97161        31.96483         3.64670
O         44.32520        39.10601        -1.54616
O         40.57078        44.32682         1.67992
O         48.05049        32.41064        -1.14053
O         32.64418        32.18434        -0.02450
O         39.61190        42.12108         2.86558
O         35.94469        44.15188         3.08127
O         42.98386        30.59896         2.75120
O         40.93181        45.84263        -2.16533
O         46.91982        42.22792         0.33411
O         45.56479        44.60944        -0.53276
O         37.47841        31.70931         1.60401
O         39.33978        46.77197         2.36886
O         32.75308        37.57683         2.10890
O         49.64822        35.13181        -1.62820
O         31.46439        35.38181         0.61835
O         37.25150        37.46780         2.77352
O         33.71005        34.53714         1.68192
H         33.81812        35.17691         2.42562
O         41.03187        29.71714        -1.95606
H         40.41925        29.34590        -2.64510
O         38.73799        33.93963         2.79886
H         37.76943        33.87932         2.98241
O         42.66410        33.15382         3.39446
H         43.29558        32.50168         3.79832
O         49.16692        38.21346         1.31052
H         49.51441        39.12895         1.45191
O         41.56968        35.50290         3.09686
H         40.94628        34.92449         3.59153
O         46.43770        38.26318         1.71236
H         47.38264        38.41165         1.96263
O         47.95406        32.15478         2.41314
H         47.67872        32.66397         3.20494
O         35.87264        33.51019         2.18571
H         35.68688        32.54319         2.24411
O         47.83897        36.29268         2.15379
H         47.98594        35.50076         2.71104
O         51.85483        31.00185         2.99705
H         52.61948        30.46406         3.28985
O         30.36143        37.99268         1.24836
H         30.31980        37.00965         1.29497
O         45.10445        27.43433        -1.62147
H         44.38687        27.42415        -2.30634
O         40.10449        43.29685        -1.77301
H         40.51526        42.62791        -2.35993
O         34.88627        36.66304         2.88890
H         34.88728        37.36211         3.57621
O         35.49383        40.18023        -0.25060
H         34.97648        40.88154        -0.71567
O         41.94030        48.30159        -0.02104
H         42.24233        49.23227        -0.04302
O         34.51813        42.79228        -0.56291
H         33.88436        43.42814        -0.96535
O         42.43708        35.26913        -0.44780
H         43.22115        35.54182        -0.99068
O         43.12820        41.65605         1.32758
H         42.39495        41.75671         1.97426
O         38.83494        26.13593        -0.13447
H         39.52386        25.64994         0.36425
O         35.00869        41.96340         2.92061
H         35.51980        41.28261         3.42259
O         33.35421        43.94059         2.76531
H         34.01117        43.87310         3.49447
O         50.29848        37.42076        -2.09211
H         50.10772        36.53758        -2.50637
O         49.79259        40.71988         0.83891
H         50.50529        41.36750         1.03172
O         46.64362        30.63772         0.08102
H         46.85208        30.14565        -0.75149
O         45.07139        26.63958         1.90457
H         45.76331        26.71805         2.59369
O         36.85237        42.86842        -0.19068
H         36.81479        42.03743        -0.71278
O         35.40669        36.86304        -0.65739
H         35.37643        36.22617        -1.41482
O         44.09539        41.49102        -2.14671
O         42.55757        27.56221        -2.55642
H         42.46114        28.54976        -2.51467
O         41.34944        28.81360         1.62852
H         40.67459        29.35642         2.11010
O         35.00528        31.05894         0.65225
H         34.08713        31.36496         0.86178
O         44.40521        44.73190        -4.01750
H         44.20254        45.39719        -4.70788
O         39.00184        28.24520        -3.07497
H         38.29537        28.55580        -3.67938
O         41.85102        39.76297        -1.55510
H         42.61312        39.65714        -2.17594
O         51.44538        41.32446        -3.28297
H         52.23611        41.67747        -3.73830
O         51.07754        33.00584        -1.27550
H         50.43443        33.66383        -1.67126
O         48.83659        29.29202         2.48272
H         48.18032        29.22975         3.21691
O         48.68577        39.15434        -2.25746
H         48.11258        38.36844        -2.42926
O         48.60559        29.39237        -1.12002
H         49.21672        29.72235        -1.81095
O         39.09865        34.90755        -0.71827
H         39.31471        35.77510        -1.12876
O         34.84338        32.17286        -2.88058
H         34.27804        31.86937        -3.62632
O         47.40217        36.73659        -1.50664
H         48.04066        36.01642        -1.74897
O         30.57334        30.92971        -1.53537
H         30.13243        31.73326        -1.19337
O         33.65704        39.86702         2.91809
H         32.85891        39.34200         3.15193
O         37.35927        31.87149        -2.06037
H         36.61796        31.95971        -2.70856
O         41.65581        38.20799         2.73487
H         41.74786        37.31787         3.15492
O         43.54032        29.56422        -1.18926
H         43.24735        30.51445        -1.17778
O         39.24695        39.47662         3.13398
H         39.47961        40.42446         3.37471
O         38.47683        44.43272         3.42736
H         39.02591        43.59840         3.51693
O         36.36047        39.78189         3.29845
H         37.21551        39.45324         3.67339
O         42.59865        26.74739         0.98685
H         43.18179        26.90688         1.76309
O         46.61272        30.12509         3.55100
H         45.37526        31.25527         4.21036
O         39.94408        30.91363         2.32742
H         38.98420        31.11237         2.48249
O         51.07979        33.57569         2.45197
H         51.63339        32.85006         2.83214
O         44.25254        35.56925         2.74919
H         43.57356        35.13647         3.32184
O         34.54028        34.75078        -1.89678
H         34.77971        34.02442        -2.52663
O         42.04925        31.69376        -0.59555
H         41.35972        31.50346        -1.27639
