         210
 CSIRO Nanostructure Databank - Neutral Graphene Oxide Data Set
C         30.35343        31.69241         0.08542
C         30.46583        32.92628         0.29113
C         30.49322        36.03599         0.90115
C         30.54360        37.27519         1.08558
C         30.63463        40.39197         1.39703
C         30.57022        41.63979         1.47137
C         32.78583        28.90686        -0.32419
C         31.68146        29.46849        -0.16371
C         32.76848        31.59383        -0.15338
C         31.53950        30.88250        -0.06314
C         32.77540        33.11497        -0.28046
C         31.54262        33.82651         0.30816
C         32.87099        35.88160         0.71025
C         31.59560        35.17100         0.63032
C         32.90354        37.30342         1.08639
C         31.66595        38.12322         1.12258
C         32.92387        40.27832         0.84401
C         31.72872        39.52399         1.15616
C         32.89137        41.73006         0.79766
C         31.68055        42.46921         1.17175
C         32.90630        44.43837         0.79941
C         31.84284        43.86999         1.15256
C         35.50806        27.35760        -0.53802
C         35.26589        28.74982        -0.64950
C         34.08328        29.46108        -0.48026
C         35.25212        31.64354        -0.27013
C         34.03741        30.92028        -0.33795
C         35.26469        33.07366         0.01337
C         34.06541        33.78372         0.13843
C         35.31713        35.93204         0.30777
C         34.07268        35.19668         0.43007
C         35.34566        37.33180         0.32472
C         34.23408        38.11216         0.83280
C         35.30075        40.23855         0.12243
C         34.15139        39.57388         0.57141
C         35.20724        41.69987        -0.25931
C         34.06053        42.43761         0.39458
C         35.31575        44.55656         0.01489
C         34.13153        43.86369         0.38654
C         35.50283        45.93873        -0.16521
C         37.90126        27.33507        -0.56050
C         36.59165        26.74038        -0.52272
C         37.85240        28.72360        -0.69146
C         36.56356        29.44570        -0.83916
C         37.81233        31.57989        -0.13882
C         36.52324        30.96918        -0.58145
C         37.78794        33.05751         0.11095
C         36.51098        33.80317         0.04225
C         37.81447        35.92334         0.05948
C         36.53973        35.19417         0.07623
C         37.81931        37.34161         0.01268
C         36.51797        38.04533        -0.28696
C         37.75850        40.20875        -0.21205
C         36.54592        39.54073        -0.05434
C         37.75521        41.67775        -0.58898
C         36.51929        42.43953        -0.17906
C         37.80531        44.54687        -0.52529
C         36.55965        43.82955        -0.20469
C         37.80388        45.97475        -0.78877
C         36.53702        46.55664        -0.52055
C         40.29670        24.54285         0.02665
C         39.26057        25.22594        -0.18668
C         40.38597        27.27125        -0.24017
C         39.13035        26.61428        -0.37561
C         40.44962        28.72403        -0.50505
C         39.11509        29.49876        -0.76094
C         40.31949        31.61859        -0.12553
C         39.10762        30.92617        -0.43849
C         40.29220        33.00612         0.09318
C         39.05792        33.77475        -0.28442
C         40.27175        35.93417         0.14232
C         39.04037        35.23328         0.07740
C         40.27176        37.36240         0.08368
C         39.02941        38.06126        -0.00451
C         40.25296        40.18899        -0.16523
C         39.02546        39.50661        -0.15192
C         40.26470        41.64295        -0.48855
C         39.01085        42.39254        -0.09825
C         40.25117        44.48212        -0.85503
C         39.02442        43.83899        -0.53092
C         40.12688        45.77438        -1.40392
C         38.98374        46.59430        -1.25853
C         40.37828        48.64192        -1.13457
C         39.35139        47.97984        -1.37585
C         42.86477        24.53090         0.37162
C         41.57672        25.10775         0.16905
C         42.82195        27.31660         0.22950
C         41.59169        26.56312         0.06421
C         42.82780        28.74460         0.24664
C         41.62378        29.48295        -0.02711
C         42.77698        31.61584         0.38344
C         41.57427        30.88118         0.06448
C         42.76640        33.02740         0.50120
C         41.45669        33.75229         0.68025
C         42.71544        35.92229         0.32746
C         41.49993        35.21887         0.28151
C         42.73727        37.36339         0.19927
C         41.51320        38.06872         0.07336
C         42.73472        40.21059         0.00714
C         41.50812        39.50184        -0.03553
C         42.69379        41.70481         0.19389
C         41.55603        42.39743        -0.52156
C         42.75129        44.58237        -0.30152
C         41.55727        43.88891        -0.56564
C         42.86409        46.04882        -0.29999
C         41.95385        46.88374        -0.99432
C         42.69964        48.78446         0.13289
C         41.69960        48.26930        -0.72687
C         43.90228        25.22137         0.42642
C         45.28052        27.32209         0.56531
C         44.08605        26.63105         0.41989
C         45.31253        28.77443         0.65523
C         44.03966        29.47804         0.51240
C         45.20820        31.64376         0.91520
C         43.99477        30.88290         0.58510
C         45.23732        33.09788         0.70387
C         43.97062        33.79116         0.62118
C         45.16116        35.97722         0.79626
C         43.93588        35.20446         0.57073
C         45.19804        37.41174         0.47674
C         43.97263        38.09362         0.23895
C         45.22088        40.24345         0.19022
C         43.96748        39.52536         0.13768
C         45.22574        41.70844         0.16242
C         44.00233        42.43047         0.07293
C         45.15557        44.54945         0.45945
C         43.96411        43.84139         0.07472
C         45.07499        45.95311         0.78095
C         43.89732        46.68941         0.46077
C         43.65813        48.07889         0.55512
C         47.71990        27.32932         0.73647
C         46.60381        26.79662         0.67192
C         47.89718        28.79269         1.07962
C         46.52642        29.44676         0.80307
C         47.75718        31.65719         0.53975
C         46.55531        30.90768         0.95221
C         47.71110        33.05516         0.46055
C         46.46217        33.75605         0.66431
C         47.72327        35.95978         0.50543
C         46.49813        35.21425         0.81304
C         47.68316        37.35234         0.51542
C         46.43590        38.09657         0.49113
C         47.70443        40.24275         0.16848
C         46.42287        39.52454         0.31690
C         47.72514        41.75737         0.14874
C         46.42976        42.44192         0.27750
C         47.64468        44.51070         0.86423
C         46.40076        43.83928         0.54636
C         47.41550        45.84809         1.21458
C         46.31343        46.46122         1.20640
C         50.14246        28.97877        -0.24563
C         48.96062        29.50807         0.30438
C         50.03759        31.64453        -0.43152
C         48.92747        30.92980         0.11394
C         50.08044        33.06061        -0.25955
C         48.91357        33.79618         0.15720
C         50.16887        35.93676         0.07215
C         48.94100        35.21938         0.24583
C         50.22122        37.35438         0.27581
C         48.97482        38.07064         0.60709
C         50.24529        40.31521         0.30138
C         48.98240        39.57834         0.54722
C         50.24141        41.75089         0.38878
C         48.98849        42.45415         0.48458
C         50.20031        44.39396         0.93387
C         48.90668        43.83320         0.79394
C         51.21668        29.45572        -0.67915
C         52.44241        31.70142        -1.05184
C         51.18237        30.87607        -1.21465
C         52.34644        32.92701        -0.88760
C         51.30164        33.80449        -0.47040
C         52.49163        36.04068        -0.34933
C         51.35807        35.18433        -0.26962
C         52.52266        37.27567        -0.17089
C         51.41409        38.11347         0.14470
C         52.56634        40.40001         0.18841
C         51.43538        39.54784         0.22486
C         52.63716        41.64649         0.32336
C         51.50615        42.48138         0.48109
C         51.32241        43.84988         0.78450
O         40.97001        41.86610        -1.75424
O         41.24677        46.30568        -2.06244
O         33.80895        37.67660         2.16284
O         47.82842        40.96077        -1.09709
O         36.58345        30.41976        -1.93046
O         48.99714        38.90227         1.84078
O         45.84892        35.66002         2.05143
O         40.01421        29.10304        -1.84690
O         37.81338        32.13615         1.23608
O         45.87549        31.31424         2.18582
O         37.76239        41.70091        -2.04386
H         36.84578        41.48044        -2.33769
O         36.33840        37.91927        -1.74744
H         37.08026        38.39458        -2.17967
O         42.29619        41.89535         1.61545
H         42.99056        41.48859         2.17771
O         41.21476        33.77573         2.14468
H         42.02794        34.12286         2.57095
O         38.97012        42.34451         1.35218
H         39.86540        42.55051         1.69921
O         38.99703        33.76412        -1.75991
H         39.76533        34.26904        -2.10134
O         50.81663        30.85039        -2.56924
H         51.50645        30.38117        -3.08181
O         48.18911        28.94027         2.46491
H         47.44849        28.57080         2.98897
O         32.67912        33.38405        -1.72229
H         31.89090        32.90962        -2.06448
O         34.90851        41.66863        -1.72864
H         34.59472        42.56285        -1.98656
