         324
 CSIRO Nanostructure Databank - Neutral Graphene Oxide Data Set
C          1.23416         3.35596        -0.28944
C          0.03171         4.04990        -0.38618
C          1.18328         6.18672        -0.05224
C          0.00042         5.44101        -0.27860
C          1.16779         7.62597         0.06703
C         -0.01853         8.38222        -0.26012
C          1.02962        10.49620         0.44745
C         -0.06832         9.73567        -0.16783
C          1.08388        11.97624         0.20769
C         -0.14045        12.76366         0.35090
C          1.14141        14.85696         0.33044
C         -0.09737        14.12254         0.29808
C          1.12008        16.29129         0.16616
C          0.07118        16.95196        -0.46677
C          1.18661        19.14215        -0.33432
C          0.08087        18.34633        -0.65753
C          1.16973        20.57883        -0.52221
C          0.07692        21.28000        -0.98896
C          1.22907        23.44734        -0.86510
C          0.08321        22.70073        -1.08061
C          1.22862        24.96540        -0.83925
C          0.05584        25.65004        -1.49218
C          1.38315        27.61466        -2.11234
C          0.13122        26.91421        -1.98128
C          1.48392        28.96789        -2.44144
C          3.67929         3.36335        -0.00126
C          2.44589         4.05441        -0.06445
C          3.62753         6.19209         0.34827
C          2.41887         5.48360         0.07872
C          3.57272         7.59696         0.53880
C          2.35628         8.30857         0.40783
C          3.60693        10.51964         0.83847
C          2.32390         9.76084         0.71403
C          3.61464        11.97240         0.84350
C          2.40826        12.71154         0.40614
C          3.57679        14.86453         0.83869
C          2.35516        14.17687         0.57363
C          3.56874        16.34384         0.97996
C          2.26667        17.08767         0.62399
C          3.58909        19.16205         0.28708
C          2.36854        18.49988         0.20966
C          3.63920        20.57109        -0.17324
C          2.35987        21.35958        -0.00811
C          3.67752        23.46128        -0.51499
C          2.45599        22.77929        -0.52455
C          3.73299        24.85000        -0.95671
C          2.56280        25.51602        -1.28816
C          3.94719        27.57437        -1.94086
C          2.60690        26.82383        -1.94132
C          3.92075        29.04337        -2.05048
C          2.70485        29.66607        -2.40834
C          6.13584         3.36760         0.13560
C          4.89602         4.05241         0.15827
C          6.11392         6.15096         0.48488
C          4.88419         5.47987         0.35960
C          6.10411         7.56382         0.92364
C          4.77639         8.31801         0.97602
C          6.03695        10.47595         1.35842
C          4.77592         9.80236         0.98486
C          6.02854        12.00374         1.47822
C          4.77036        12.71021         1.12650
C          6.01780        14.91608         1.24597
C          4.76576        14.14965         1.03351
C          6.06163        16.37482         0.92536
C          4.82518        17.09541         0.87487
C          6.05795        19.22245         0.63597
C          4.82347        18.49592         0.62235
C          6.14734        20.59337         0.30079
C          4.93871        21.30013        -0.18397
C          6.12228        23.47042        -0.17292
C          4.93001        22.78347        -0.24135
C          6.15943        24.90207        -0.40696
C          5.00833        25.54864        -0.93803
C          6.25432        27.66908        -1.05633
C          5.07779        26.92191        -1.27536
C          6.29291        29.10167        -1.35006
C          5.10493        29.75039        -1.78516
C          8.56622         3.22384         0.10185
C          7.37276         4.03604         0.09375
C          8.54757         6.27997         0.27481
C          7.35521         5.49213         0.22210
C          8.54293         7.66179         0.71532
C          7.36165         8.33017         0.89747
C          8.60651        10.48064         1.39214
C          7.33090         9.84037         0.85839
C          8.57199        11.98939         1.55172
C          7.31459        12.70149         1.33439
C          8.57658        14.87141         0.93455
C          7.31984        14.16570         1.35089
C          8.54834        16.36027         0.73096
C          7.26683        17.05821         0.89124
C          8.59009        19.21664         0.87297
C          7.28294        18.53326         1.18473
C          8.58965        20.62310         0.72555
C          7.35149        21.30345         0.41885
C          8.45773        23.51543         0.73604
C          7.44303        22.72915        -0.07452
C          8.44806        25.00965         0.59068
C          7.34429        25.65049        -0.18609
C          8.67008        27.75000        -0.51012
C          7.38657        27.01653        -0.52514
C          8.68368        29.22834        -0.68804
C          7.46956        29.83471        -1.13330
C         11.12727         3.29562        -0.23530
C          9.78809         3.68103        -0.41298
C         11.03658         6.31843        -0.09835
C          9.74813         5.80905        -0.30591
C         11.13349         7.63488         0.55794
C          9.84718         8.33914         0.93757
C         11.10202        10.47382         1.02139
C          9.88632         9.80418         1.07549
C         11.07795        11.96865         0.94870
C          9.87933        12.72853         1.43873
C         11.11462        14.91566         0.74735
C          9.89076        14.21233         1.20953
C         11.05569        16.36800         0.32592
C          9.81806        17.09648         0.77281
C         11.08562        19.21864         0.88908
C          9.82789        18.50140         0.86139
C         11.06913        20.65671         1.01874
C          9.81178        21.33718         0.88588
C         10.98191        23.55841         1.42396
C          9.71798        22.79124         1.14450
C         11.01630        25.04224         1.14990
C          9.73972        25.75939         0.78092
C         11.06227        27.88471         0.40685
C          9.86406        27.06408         0.04460
C         11.07231        29.34369         0.07418
C          9.83850        29.95289        -0.46257
C         13.50587         3.53461        -0.68894
C         12.24524         4.15288        -0.52893
C         13.43819         6.37177        -0.56518
C         12.21251         5.60954        -0.45278
C         13.45551         7.80116        -0.29944
C         12.33126         8.44108         0.29441
C         13.59191        10.54505         0.58672
C         12.31463         9.80554         0.63183
C         13.62871        12.06104         0.67916
C         12.31029        12.75825         0.64819
C         13.55338        14.95229         0.45938
C         12.30838        14.24649         0.68049
C         13.54978        16.38400         0.56192
C         12.33379        17.09661         0.64672
C         13.58058        19.15922         1.11443
C         12.32245        18.49339         0.86932
C         13.53116        20.59330         1.50089
C         12.27611        21.35288         1.28586
C         13.59677        23.59001         1.43540
C         12.28906        22.81555         1.51501
C         13.61162        25.00780         0.96250
C         12.31482        25.63402         0.65363
C         13.60898        27.82846         0.27608
C         12.33324        27.10945         0.30640
C         13.57620        29.27735         0.06988
C         12.39261        29.96983        -0.09655
C         15.92546         3.63022        -1.21225
C         14.68106         4.27260        -0.94773
C         15.79283         6.45716        -1.40476
C         14.62324         5.69990        -0.92869
C         15.77081         7.96511        -1.23792
C         14.65061         8.58391        -0.49677
C         16.01320        10.66402        -0.07195
C         14.74480         9.89191        -0.04000
C         16.00001        12.14696        -0.06004
C         14.81710        12.82320         0.22929
C         15.99153        14.99427         0.06951
C         14.76540        14.25899         0.24041
C         16.00804        16.40211         0.32839
C         14.79680        17.08719         0.61519
C         16.12852        19.05076         1.38743
C         14.78815        18.48364         0.95027
C         16.16056        20.58258         1.52149
C         14.84809        21.33824         1.60538
C         16.10651        23.53295         0.93291
C         14.83856        22.78499         1.17878
C         16.11053        25.05797         1.06466
C         14.78188        25.69564         0.69151
C         16.04324        27.79814        -0.16254
C         14.78626        27.10238         0.33061
C         16.03856        29.29258         0.06881
C         14.84093        29.97389         0.05198
C         18.36576         3.66437        -1.58607
C         17.11298         4.34559        -1.44709
C         18.29884         6.48911        -1.69164
C         17.09942         5.77971        -1.54278
C         18.34116         7.96883        -1.70068
C         17.06351         8.70296        -1.36110
C         18.39498        10.80674        -1.06471
C         17.22463        10.00229        -0.65669
C         18.33675        12.19962        -0.95022
C         17.17293        12.87839        -0.45927
C         18.38127        15.05865        -0.57508
C         17.16911        14.30274        -0.32661
C         18.41996        16.45475        -0.27005
C         17.25544        17.13749         0.23258
C         18.53665        19.23532         0.44191
C         17.31166        18.49311         0.59553
C         18.63106        20.63155         0.74328
C         17.43584        21.33411         1.28510
C         18.67634        23.56116         0.91116
C         17.41081        22.83877         1.19811
C         18.61122        24.94225         0.33933
C         17.30428        25.66382         0.32063
C         18.53197        27.83075         0.18348
C         17.34175        27.13554         0.20830
C         18.50299        29.29063         0.11183
C         17.29038        29.97294         0.10463
C         19.54123         4.36426        -1.70581
C         20.76575         6.52152        -1.67342
C         19.54705         5.79194        -1.70903
C         20.80596         7.90315        -1.53446
C         19.62567         8.68124        -1.48151
C         20.82483        10.89058        -1.38172
C         19.60749        10.09760        -1.36091
C         20.78452        12.24061        -1.39889
C         19.47688        12.98397        -1.55489
C         20.67969        15.18102        -1.36263
C         19.52372        14.42589        -1.10959
C         20.74384        16.52124        -1.02135
C         19.62888        17.17884        -0.45262
C         20.90281        19.29038        -0.21197
C         19.69010        18.57300        -0.08279
C         20.97609        20.63288         0.08069
C         19.83346        21.34425         0.52725
C         21.06009        23.53960         0.45270
C         19.91821        22.79692         0.65076
C         21.05073        24.97344         0.42144
C         19.88503        25.70547         0.32410
C         20.98376        27.92695         0.23159
C         19.82804        27.15766         0.25541
C         20.93976        29.34407         0.16599
C         19.73999        30.01079         0.11281
O          7.91045        24.34427         1.78534
O         13.01349        23.30163         2.72217
O          1.91999        12.30807        -0.94349
O         10.90941        28.80523         1.49976
O         15.36144        22.97066        -0.18490
O         17.78367        24.97948        -0.88298
O         10.07798        13.64759         2.55450
O          5.37409         7.75249         2.19516
O          8.55396        11.05670         2.71612
O          5.98504        11.09864         2.65245
O         17.03051         9.99387         0.79221
O          6.65650        14.69471         2.56500
O          9.62774         4.80516        -1.26442
O         13.88214        11.25658         1.86637
O          3.48145        26.86318        -3.12570
O         12.23348        26.08024        -0.74193
O         10.28844        25.84521         2.12419
O          4.35434        20.73339        -1.43520
O          9.64452        27.02573        -1.39047
O         17.55043         8.69014        -2.72610
O         17.03874        20.93267         2.64678
O         10.67138         7.64737         1.95128
O         15.39159         7.36055        -2.50566
O         18.17121        23.45570         2.30019
O         10.11427        23.15364         2.51341
O          1.37766        10.08987         1.80527
O          8.50380        15.36772        -0.43531
O          2.65356        16.82715         2.01528
O         14.14578        20.97222         2.80811
O         11.42541        12.31433        -0.45716
O         16.29554        25.37239         2.46579
H         17.03297        24.80665         2.80931
O         10.97556        16.34766        -1.15226
H         10.12063        15.90377        -1.37268
O          8.00152        22.67460        -1.42640
H          7.36356        22.19795        -1.99946
O         19.21399        13.03808        -3.00386
H         19.15235        12.11254        -3.32435
O         15.98162        27.64158        -1.62820
H         15.12769        28.01968        -1.92971
O         16.29960        18.50403         2.72615
H         16.80533        19.17294         3.24574
O          7.30388        10.16628        -0.57802
H          8.06861         9.73408        -1.01511
O          1.12203        25.31706         0.59345
H          1.89096        24.91335         1.05103
O          2.17961        21.47293         1.44378
H          1.29209        21.85715         1.60605
O          7.18221        18.63449         2.66547
H          6.35344        18.18208         2.93547
H          1.25386         2.26142        -0.38907
H         -0.90463         3.49983        -0.55404
H         -0.96835         5.95164        -0.35693
H         -0.87808         7.85455        -0.69533
H         -0.93234        10.28607        -0.56737
H         -1.09180        12.24173         0.52658
H         -1.03749        14.68887         0.35646
H         -0.79847        16.38288        -0.82361
H         -0.80803        18.80694        -1.10910
H         -0.83813        20.75381        -1.29544
H         -0.85115        23.19541        -1.37829
H         -0.93051        25.17038        -1.41800
H         -0.78400        27.42537        -2.31797
H          0.56148        29.53204        -2.64442
H          3.68952         2.27035        -0.12673
H          2.69901        30.75235        -2.57975
H          6.12487         2.26961         0.06529
H          5.11727        30.84320        -1.91516
H          8.48523         2.20370         0.50630
H          7.45980        30.92051        -1.31233
H         11.35096         2.29045         0.15294
H          9.84391        31.03445        -0.66805
H         13.56277         2.43617        -0.67992
H         12.43275        31.04740        -0.31810
H         15.96483         2.53093        -1.18932
H         14.83435        31.07442         0.06164
H         18.37548         2.56531        -1.55467
H         17.29138        31.07307         0.14645
H         20.50057         3.83035        -1.76712
H         21.71035         5.95897        -1.69709
H         21.78583         8.39210        -1.44441
H         21.79669        10.37717        -1.36294
H         21.72872        12.80290        -1.41581
H         21.55038        14.71488        -1.84218
H         21.67397        17.06591        -1.22481
H         21.81048        18.78620        -0.56529
H         21.93017        21.15674        -0.05791
H         22.03241        23.04651         0.31635
H         22.02567        25.48012         0.40823
H         21.96910        27.44182         0.25949
H         21.88457        29.90495         0.15730
H         19.71303        31.10882         0.06245
