         277
 CSIRO Nanostructure Databank - Neutral Graphene Oxide Data Set
C         30.31897        31.86781        -0.18978
C         30.47361        33.09526        -0.01392
C         30.72829        36.27081         0.68739
C         30.69961        37.33875         0.07292
C         30.76568        40.67514         0.18032
C         30.86486        41.89979         0.32084
C         32.68266        28.98107         0.22378
C         31.58611        29.53938         0.04331
C         32.75421        31.67343        -0.17910
C         31.41576        30.99726         0.40523
C         32.84146        33.18094         0.16589
C         31.57245        33.92221         0.36376
C         32.95368        36.03855        -0.95969
C         31.52981        35.13333         1.04937
C         32.94159        37.51826        -0.75719
C         31.61416        38.23633        -0.65865
C         33.07917        40.40226        -0.40295
C         31.66963        39.72331        -0.49633
C         32.99910        41.88442        -0.84790
C         32.09232        42.75249         0.25664
C         33.20794        44.61646        -0.80888
C         32.18558        44.11843        -0.32065
C         35.49547        27.36706         0.10898
C         35.26322        28.76438         0.62140
C         34.02512        29.50986         0.21685
C         35.32267        31.59168        -0.04324
C         34.03288        30.87611         0.09799
C         35.30914        33.07232        -0.17084
C         34.02669        33.83587        -0.05161
C         35.30897        36.06433         0.10886
C         34.21577        35.25538        -0.58805
C         35.36510        37.58783        -0.13923
C         34.13295        38.17753        -0.79344
C         35.50420        40.32814        -1.09457
C         34.13683        39.64175        -1.21773
C         35.52328        41.81606        -0.94756
C         34.35843        42.53721        -1.04009
C         35.68020        44.66668        -1.53101
C         34.32145        43.99805        -1.59715
C         35.91017        46.10649        -1.28414
C         37.94695        27.25672        -0.08405
C         36.55413        26.73367         0.10054
C         37.83981        28.71505         0.42722
C         36.57643        29.47782         0.22902
C         37.82808        31.60108         0.30951
C         36.61144        30.87644         0.20878
C         37.79110        33.02377         0.68768
C         36.51681        33.78487         0.38588
C         37.89297        35.87785        -0.08508
C         36.56648        35.29356         0.37577
C         37.89847        37.41589         0.01113
C         36.69253        38.01010        -0.80495
C         38.02854        40.24352        -0.54246
C         36.77299        39.54030        -0.93131
C         37.99840        41.69954        -0.66891
C         36.84797        42.42918        -0.90335
C         38.16978        44.63623        -0.68343
C         36.93050        43.89665        -1.15817
C         38.28905        46.13727        -0.76080
C         37.01578        46.66868        -1.26980
C         40.32703        24.45253         0.82658
C         39.27114        25.18329         0.71469
C         40.32913        27.25421         0.93343
C         39.06927        26.52617         0.59426
C         40.40486        28.71350         0.62845
C         39.12316        29.46577         0.60035
C         40.37128        31.66205         0.61605
C         39.14878        30.91495         0.10188
C         40.36085        32.96042         1.00705
C         39.08160        33.80175         1.07840
C         40.31212        35.82739        -0.02315
C         39.16615        35.18798         0.40408
C         40.42194        37.30413         0.04808
C         39.21579        38.02165        -0.56412
C         40.52285        40.17133        -0.16630
C         39.17238        39.51791        -0.30822
C         40.31898        41.61406         0.24579
C         39.32174        42.37454        -0.56674
C         40.56888        44.54107         0.12018
C         39.44432        43.85425        -0.60199
C         40.87073        45.98324        -0.24437
C         39.65714        46.67658        -1.12419
C         40.25573        48.69001         0.16656
C         39.79870        48.13003        -0.83704
C         42.88703        24.44018         0.39775
C         41.60510        24.95627         0.75985
C         43.00249        27.21533         0.97519
C         41.65600        26.44977         1.03504
C         42.86804        28.68961         0.61626
C         41.60110        29.38542         0.60844
C         42.86410        31.40797         1.26328
C         41.67632        30.89984         0.39809
C         42.88692        32.90556         1.33344
C         41.57948        33.49867         1.81442
C         42.75302        35.73189         1.21946
C         41.66611        35.01731         1.95550
C         42.63387        37.21325         1.26800
C         41.47558        37.95627         0.66790
C         42.58621        40.13573         1.25438
C         41.54564        39.43073         0.69832
C         42.52458        41.63860         1.58680
C         41.27154        42.36061         1.10373
C         42.42449        44.54318         1.85269
C         41.36504        43.85965         0.98308
C         42.39058        46.07289         1.73995
C         41.45129        46.75971         0.93192
C         41.95504        48.71074         2.14970
C         41.22052        48.17064         1.09650
C         43.86320        25.15408         0.08146
C         45.20800        27.26605        -0.26129
C         44.13558        26.54732         0.16695
C         45.21931        28.79417        -0.27922
C         44.04923        29.41130         0.43535
C         45.29060        31.54149         0.51283
C         44.10977        30.81113         0.67183
C         45.28041        32.97078         0.69581
C         44.01774        33.63721         1.04580
C         45.16578        35.90497         0.81460
C         43.97563        35.10781         1.06295
C         45.17464        37.28049         1.04241
C         43.92590        37.95478         1.50238
C         45.13459        40.24462         1.37392
C         43.85913        39.46659         1.77861
C         45.05837        41.73780         1.21257
C         43.73017        42.44376         1.00577
C         45.00721        44.46763         1.73245
C         43.77511        43.86359         1.56798
C         45.15332        45.73921         2.45147
C         43.14834        46.77361         2.71560
C         42.84142        48.13608         2.85101
C         47.62066        27.39904        -0.75700
C         46.50544        26.85855        -0.67303
C         47.85985        28.70184         0.00300
C         46.53770        29.47080         0.03902
C         47.77061        31.63481         0.11770
C         46.54096        30.84754         0.20810
C         47.71644        33.03357         0.26536
C         46.46128        33.70142         0.50633
C         47.62313        36.00386         0.18212
C         46.37650        35.18328         0.36163
C         47.55646        37.45646         0.42141
C         46.36117        38.09645         0.76494
C         47.43629        40.31219         0.36617
C         46.32736        39.54033         0.85621
C         47.41645        41.83693         0.13664
C         46.22450        42.53150         0.74803
C         47.45973        44.64483         0.98718
C         46.22289        43.85378         1.12943
C         47.24600        45.92478         1.45051
C         46.30774        46.44900         2.15320
C         50.02959        29.14824        -1.38358
C         48.93640        29.56910        -0.56065
C         50.26202        31.65321        -0.70971
C         48.95572        30.94233        -0.36060
C         50.20879        33.15746        -0.40990
C         48.98786        33.82344         0.18463
C         50.02617        36.12930        -0.44776
C         48.98730        35.35952         0.37608
C         49.88716        37.53392        -0.55379
C         48.84954        38.22668         0.33921
C         49.78353        40.42386        -0.49520
C         48.60407        39.67227        -0.00358
C         49.94000        41.86898        -0.15642
C         48.76173        42.46966         0.64112
C         49.79103        44.51932        -0.01937
C         48.64956        44.02367         0.51448
C         50.92287        29.71192        -2.03968
C         52.10991        32.04416        -2.27589
C         50.83172        31.22785        -2.15418
C         52.06215        33.23584        -1.88963
C         51.23076        34.02069        -1.06930
C         51.95090        36.29954        -1.81523
C         51.09328        35.42139        -1.10454
C         51.76558        37.53508        -1.95081
C         50.76177        38.32185        -1.36292
C         51.64312        40.65242        -2.02202
C         50.47471        39.75505        -1.69858
C         51.65926        41.87786        -1.81081
C         50.90830        42.74561        -0.96952
C         50.79024        44.09304        -0.73630
O         43.15679        37.41018         2.63322
O         46.86261        35.58391        -0.99410
O         39.28187        37.79853        -1.96036
O         40.04265        41.80968         1.66975
O         32.11755        35.52443        -1.68584
O         50.07141        33.30021         1.05258
O         38.33392        29.06256         1.77264
O         36.33063        39.97658        -2.26159
O         45.41571        41.18072         2.50567
O         39.80999        43.06237        -1.77676
O         42.02609        45.95992        -1.21083
O         31.24022        39.12679        -1.72814
O         35.74915        35.79361         1.47346
O         35.44722        32.28137        -1.39038
O         44.20737        46.16288         3.37010
O         40.92018        26.86234         2.21936
O         50.66551        40.84278         0.60499
O         36.74909        33.25375         1.72566
O         38.08942        45.48757         0.51455
O         40.99169        35.62211         2.76941
O         47.39862        42.06753        -1.29053
H         46.50271        41.87255        -1.63721
O         33.76008        39.69765        -2.60224
H         34.56950        39.48915        -3.12551
O         32.57203        35.45029         1.86821
H         32.47711        36.35374         2.22936
O         32.60017        31.65035        -1.61116
H         33.46291        31.91278        -2.00729
O         37.93279        35.47702        -1.48384
H         38.54381        36.12160        -1.94267
O         42.06290        44.33967         3.23237
H         42.07778        43.36740         3.43129
O         31.40433        31.11387         1.79748
H         30.59757        30.69378         2.15846
O         36.68275        37.50150        -2.13062
H         37.58613        37.70922        -2.50452
O         42.03702        31.13326        -0.98557
H         41.23906        30.91631        -1.52728
O         42.15479        44.64076        -1.79448
H         41.34181        44.53844        -2.35646
O         39.32371        30.76385        -1.35589
H         38.87991        31.51444        -1.80650
O         42.72434        30.84745         2.58843
H         42.16721        31.46507         3.12504
O         35.25588        28.73027         2.04810
H         36.08725        28.31672         2.36548
O         35.30798        38.20342         1.17626
H         34.71691        39.00152         1.17222
O         38.24318        27.36613        -1.48233
H         38.19053        26.47430        -1.88480
O         32.73794        42.74024         1.51832
H         32.24431        43.31734         2.13798
O         48.21850        28.37654         1.34846
H         49.10439        27.95755         1.34353
O         49.28571        35.57829         1.78335
H         49.96287        34.90526         2.03774
O         42.51937        41.76723         3.01740
H         43.11590        41.08266         3.41825
O         43.81676        39.55809         3.23128
H         44.63677        39.16610         3.59660
O         43.50380        27.22061         2.33271
H         42.73212        27.37392         2.92591
O         38.94844        34.10893         2.49081
H         37.98332        34.19251         2.68827
O         33.94746        43.90574        -2.96316
H         34.76561        43.91555        -3.50671
O         41.08049        40.14019        -1.50941
H         40.64021        39.39833        -1.99586
O         32.24696        41.94698        -2.04809
H         32.60186        41.27502        -2.67606
O         36.58139        44.19496        -2.56922
O         37.86287        37.80850         1.37668
H         37.03751        37.46644         1.79619
O         49.53510        39.77971        -2.77645
H         49.94505        39.36191        -3.56228
O         51.26163        31.13863         0.19425
H         51.08779        31.52793         1.07926
O         49.94779        31.58198        -3.16602
H         50.27231        31.24976        -4.02797
O         34.80333        35.03249        -1.90621
H         34.09804        34.68302        -2.49456
O         43.57513        42.50568        -0.43511
H         43.05167        43.30099        -0.70709
O         44.95421        29.12305        -1.69249
H         44.75134        30.08171        -1.75054
O         33.51914        40.28070         0.96422
H         33.20213        41.06081         1.49079
O         39.86917        46.33102        -2.47549
H         40.71478        46.73351        -2.76941
O         41.37762        35.10465        -0.52511
H         41.94957        35.70039        -1.05072
O         41.33106        33.02422         3.16527
H         40.55302        33.54803         3.48518
O         48.93283        42.16851         2.01324
H         49.66507        41.50889         2.08815
O         49.43269        38.26774         1.67974
H         49.50325        37.32919         1.99550
