         424
 CSIRO Nanostructure Databank - Neutral Graphene Oxide Data Set
C          1.17970         3.57003        -1.52802
C         -0.01640         4.28358        -1.55621
C          1.12524         6.32490        -0.85624
C         -0.05543         5.64082        -1.22587
C          1.12019         7.74629        -0.46576
C         -0.07500         8.45643        -0.30392
C          1.11062        10.56314         0.08381
C         -0.07967         9.82434        -0.01699
C          1.10784        12.00184         0.30929
C         -0.08844        12.71747         0.48281
C          1.09139        14.85074         0.64125
C         -0.09744        14.10186         0.64079
C          1.07782        16.30289         0.74502
C         -0.13999        17.01975         0.85514
C          1.04486        19.14903         1.00023
C         -0.15704        18.39633         0.96128
C          1.03842        20.58118         1.10856
C         -0.12779        21.33827         1.02762
C          1.04787        23.50111         1.12177
C         -0.13699        22.74285         1.09644
C          1.05603        24.91297         1.07470
C         -0.12023        25.67616         0.83691
C          1.16077        27.77596         0.64077
C         -0.07910        27.03324         0.62240
C          1.17725        29.20680         0.31759
C         -0.01915        29.88091        -0.03653
C          1.18510        31.96083        -0.43371
C         -0.01781        31.21055        -0.40275
C          1.19592        33.35769        -0.79107
C          0.00146        34.05964        -1.12594
C          1.23791        36.12976        -1.44999
C          0.02017        35.40123        -1.44309
C          1.26878        37.52418        -1.76550
C          3.63464         3.49204        -1.14883
C          2.38974         4.22216        -1.19087
C          3.59554         6.24682        -0.34986
C          2.34011         5.61342        -0.88797
C          3.59732         7.76737        -0.41091
C          2.35312         8.45783        -0.29166
C          3.59132        10.59182         0.01144
C          2.35435         9.87290        -0.06374
C          3.58805        12.03614         0.19665
C          2.34237        12.72498         0.33654
C          3.56159        14.86602         0.50040
C          2.33250        14.14581         0.51156
C          3.55510        16.31919         0.64325
C          2.29372        17.03881         0.73516
C          3.52677        19.21138         0.83294
C          2.28676        18.45297         0.89281
C          3.57894        20.57841         1.02058
C          2.31962        21.29348         1.48798
C          3.60365        23.48528         1.37679
C          2.33785        22.72014         0.91584
C          3.56264        24.93635         0.84258
C          2.32554        25.67817         1.38048
C          3.61302        27.87085         1.20757
C          2.33396        27.11933         0.94078
C          3.64562        29.25484         0.61035
C          2.39286        29.92425         0.31421
C          3.62413        32.04113        -0.06130
C          2.40063        31.31093        -0.06309
C          3.64794        33.39134        -0.44557
C          2.42936        34.06157        -0.80079
C          3.68136        36.16944        -1.14688
C          2.45012        35.45310        -1.13311
C          3.69190        37.56224        -1.47579
C          2.45123        38.21734        -1.77462
C          6.11980         3.49577        -1.10826
C          4.86940         4.13776        -1.02291
C          6.09050         6.29799        -0.49332
C          4.82643         5.64822        -1.05440
C          6.07877         7.80126        -0.83358
C          4.78997         8.48769        -0.42263
C          6.07359        10.62212        -0.18574
C          4.80580         9.89931        -0.19357
C          6.13275        12.09131         0.19587
C          4.78953        12.78189         0.16373
C          6.01722        15.02875        -0.03243
C          4.77479        14.18620         0.26791
C          6.02658        16.24401         0.89075
C          4.74537        17.00896         0.68299
C          6.07739        19.18637         0.51995
C          4.75778        18.46679         0.51024
C          6.07260        20.63713         0.77850
C          4.83132        21.32569         0.91384
C          6.06827        23.47099         0.89710
C          4.85590        22.74153         0.97584
C          6.08548        24.92316         0.93834
C          4.87110        25.67728         1.01087
C          6.11155        27.78238         0.82562
C          4.87892        27.07045         0.95966
C          6.11506        29.21058         0.67349
C          4.85460        29.91672         0.55054
C          6.14592        32.05012         0.12256
C          4.85282        31.42273         0.55901
C          6.12929        33.43567        -0.24682
C          4.90026        34.11359        -0.49272
C          6.13569        36.20771        -0.93550
C          4.90688        35.49348        -0.85253
C          6.13879        37.61139        -1.25884
C          4.90825        38.26480        -1.50984
C          8.60638         3.53808        -1.25244
C          7.36932         4.20167        -1.10770
C          8.58241         6.32321        -0.81616
C          7.38397         5.62618        -0.90705
C          8.58532         7.75150        -0.40992
C          7.29661         8.48181        -0.27766
C          8.55096        10.65278        -0.45360
C          7.26035         9.95654        -0.31471
C          8.55525        12.14004        -0.57635
C          7.21469        12.88130        -0.59025
C          8.52040        14.90300         0.22458
C          7.33168        14.28329        -0.02687
C          8.57313        16.23469         0.96667
C          7.30596        17.04395         0.79370
C          8.57334        19.15851         0.82741
C          7.32422        18.40626         0.73939
C          8.54183        20.55937         0.79424
C          7.30941        21.31791         0.80654
C          8.52534        23.49389         0.88339
C          7.30671        22.76028         0.83267
C          8.55930        24.89969         0.89861
C          7.32138        25.62673         0.88739
C          8.57613        27.76296         0.67687
C          7.33584        27.05664         0.80703
C          8.57553        29.18035         0.51763
C          7.33885        29.90417         0.51029
C          8.60322        32.02250         0.09885
C          7.34167        31.33715         0.24492
C          8.59534        33.44765        -0.18241
C          7.36069        34.13458        -0.39308
C          8.59613        36.23944        -0.84406
C          7.36560        35.52774        -0.72089
C          8.59671        37.65404        -1.12340
C          7.36316        38.31197        -1.32414
C         11.09883         3.57801        -1.32050
C          9.83861         4.23445        -1.17976
C         11.07412         6.34417        -0.82877
C          9.84247         5.65186        -0.96314
C         11.12447         7.85616        -0.82501
C          9.83059         8.53868        -0.47444
C         11.05021        10.65374         0.08811
C          9.80977         9.88173        -0.28522
C         11.05121        12.08956        -0.40043
C          9.80366        12.87064        -0.25709
C         11.07061        14.91179         0.27959
C          9.80549        14.20943         0.04737
C         11.07312        16.33149         0.59217
C          9.83941        17.03509         0.74512
C         11.06933        19.14086         1.31276
C          9.80838        18.42563         0.88762
C         11.08607        20.61251         0.97400
C          9.82275        21.31538         0.54203
C         11.06756        23.48934         1.10592
C          9.77199        22.73451         1.06510
C         11.05281        24.93479         0.87097
C          9.81906        25.62119         0.84042
C         11.04880        27.73310         0.48572
C          9.81242        27.04275         0.68229
C         11.05363        29.16201         0.32510
C          9.82250        29.87468         0.34986
C         11.08975        32.01873         0.20478
C          9.80466        31.30332         0.21189
C         11.06959        33.49403        -0.07914
C          9.79451        34.16623        -0.33652
C         11.06590        36.26744        -0.79348
C          9.82056        35.54965        -0.67846
C         11.05578        37.67923        -1.02746
C          9.82732        38.35022        -1.19021
C         13.59078         3.54002        -1.52186
C         12.30087         4.26092        -1.19056
C         13.55648         6.39482        -0.70055
C         12.30161         5.66293        -0.90828
C         13.54834         7.70368        -0.30633
C         12.26571         8.41600         0.02163
C         13.55833        10.62349        -0.07293
C         12.34361         9.92007        -0.13986
C         13.57902        12.05051         0.02996
C         12.35318        12.82880        -0.21172
C         13.54432        14.85739         0.72493
C         12.27993        14.23540         0.17834
C         13.55708        16.34876         0.50318
C         12.32100        17.03311         0.57927
C         13.51554        19.15563         0.87733
C         12.34174        18.46544         0.83829
C         13.52684        20.55377         1.43428
C         12.26437        21.30364         1.07552
C         13.53062        23.43194         0.91974
C         12.32376        22.74134         0.95087
C         13.54560        24.86455         0.67519
C         12.28910        25.59503         0.61080
C         13.48809        27.68031        -0.03177
C         12.25924        26.99240         0.38211
C         13.53458        29.14699         0.01315
C         12.31542        29.85331         0.13174
C         13.55654        31.93659        -0.23434
C         12.34886        31.26892         0.00729
C         13.56113        33.35651        -0.65470
C         12.28377        34.12129        -0.66792
C         13.53917        36.26194        -0.85293
C         12.30786        35.59181        -0.73845
C         13.51565        37.68502        -0.99937
C         12.31056        38.35815        -1.10253
C         15.95169         3.49561        -0.73436
C         14.84060         4.20801        -0.99796
C         16.08313         6.30669        -0.41045
C         14.86421         5.71605        -1.07917
C         16.07672         7.71566         0.01622
C         14.77985         8.44809         0.05236
C         16.04211        10.60559         0.06984
C         14.81259         9.91753        -0.00474
C         16.05960        12.03171         0.10198
C         14.80869        12.75888         0.14001
C         16.03253        14.92882        -0.06081
C         14.79096        14.15704         0.25727
C         16.02094        16.36258         0.41664
C         14.79609        17.03924         0.49015
C         16.04838        19.21290         0.86080
C         14.78918        18.54666         0.35409
C         16.03879        20.56811         1.16469
C         14.80369        21.31700         1.16083
C         16.01662        23.48518         1.20490
C         14.77183        22.69945         1.06802
C         16.03072        24.88655         0.74548
C         14.77908        25.52445         0.50111
C         16.05762        27.69002         0.14408
C         14.80916        26.91878         0.03247
C         16.03326        29.10380        -0.04206
C         14.78017        29.81854        -0.10465
C         16.03089        31.95907        -0.37342
C         14.79449        31.23994        -0.23662
C         16.03903        33.39440        -0.55694
C         14.82077        34.11904        -0.66373
C         16.03604        36.23131        -0.90622
C         14.79619        35.52329        -0.80190
C         16.05516        37.65680        -1.07800
C         14.79415        38.48509        -0.99875
C         18.50747         3.50446        -0.80316
C         17.24188         4.10485        -0.24318
C         18.51729         6.31780        -0.17413
C         17.25335         5.61392        -0.32533
C         18.55111         7.74435        -0.06252
C         17.33014         8.48008         0.00078
C         18.54737        10.59455         0.15209
C         17.30382         9.87698         0.08668
C         18.54018        12.02372         0.23822
C         17.29505        12.75083         0.19985
C         18.51419        14.88976         0.35586
C         17.29906        14.16381         0.24247
C         18.50616        16.33086         0.45230
C         17.26425        17.06663         0.52456
C         18.53330        19.17015         0.86430
C         17.27734        18.46489         0.79277
C         18.56053        20.57660         1.06809
C         17.32438        21.23958         1.62100
C         18.55302        23.47882         1.07179
C         17.31134        22.76372         1.43808
C         18.51218        24.88326         0.84559
C         17.25179        25.58303         0.67374
C         18.50100        27.72509         0.34177
C         17.26242        27.00254         0.39172
C         18.49624        29.13196         0.08602
C         17.25633        29.83155        -0.07726
C         18.50237        31.96760        -0.37816
C         17.25618        31.25528        -0.27760
C         18.51091        33.38053        -0.60117
C         17.26923        34.09489        -0.67388
C         18.50489        36.20944        -1.04127
C         17.26492        35.51214        -0.87468
C         18.49589        37.61783        -1.26477
C         17.24988        38.31508        -1.26876
C         19.66700         4.19489        -0.74097
C         20.94750         6.30447        -0.30721
C         19.71843         5.60322        -0.36073
C         20.98648         7.67563        -0.11024
C         19.79295         8.43890        -0.01163
C         20.98810        10.62415         0.21102
C         19.78028         9.88010         0.12132
C         20.98061        11.99711         0.30965
C         19.76405        12.73662         0.31478
C         20.96112        14.91726         0.46309
C         19.75398        14.17834         0.38658
C         20.95359        16.29365         0.51215
C         19.73740        17.02702         0.52034
C         20.95143        19.20919         0.54402
C         19.75022        18.47011         0.63464
C         20.95201        20.58527         0.66183
C         19.76039        21.29609         0.94907
C         20.96657        23.49405         0.86132
C         19.76753        22.76439         0.99404
C         20.95079        24.87554         0.76151
C         19.73853        25.59411         0.70701
C         20.93510        27.76671         0.44216
C         19.73437        27.03346         0.50400
C         20.93325        29.13289         0.20433
C         19.73182        29.84098         0.00869
C         20.94183        31.98424        -0.40196
C         19.73405        31.26686        -0.25929
C         20.94737        33.34716        -0.64742
C         19.74508        34.07708        -0.74652
C         20.93828        36.23559        -1.18407
C         19.74796        35.51122        -0.99309
C         20.91837        37.61588        -1.41457
C         19.71478        38.30785        -1.45253
O         11.81895        12.44840        -1.56220
O         11.22856        33.02276         1.30052
O          5.41459        18.86381        -0.76286
O         10.38352        23.01127         2.35418
O          8.68000        11.33481        -1.80575
O         12.75817        33.50088        -1.91375
O         14.10402        27.11595        -1.24512
O          7.91717         7.95021         0.93552
O         16.61221        23.38883         2.57675
O         15.34848         7.89957         1.32136
O         13.50544        20.39605         2.90470
H         13.47126        21.29582         3.29562
O          3.60321         5.88249         1.05585
H          2.78572         6.24205         1.45805
O         17.39650        20.99179         3.05882
H         16.90431        21.73076         3.48855
O          8.66128        15.84668         2.37856
H          7.79284        15.43276         2.60868
O         14.79820        18.79524        -1.10300
H         14.10316        18.22922        -1.50205
O          5.84885        15.52074        -1.38284
H          6.01473        14.75823        -1.98757
O          2.39234        25.74392         2.86704
H          1.52480        26.09041         3.16942
O          3.69898        23.50536         2.82610
H          3.10713        24.21588         3.17783
O         16.03143        15.06330        -1.54603
H         16.85170        15.54517        -1.78858
O          4.75620        31.76197         2.00323
H          4.09599        31.15321         2.40120
O         11.95269         8.16078         1.42985
H         12.80214         8.14827         1.92333
O          2.32888        21.28144         2.93664
H          3.01946        21.93070         3.22847
O          6.58518        12.11807         1.58206
H          5.91183        11.66895         2.13480
O         13.70989         3.53508        -2.96925
H         12.84067         3.27957        -3.34342
O          3.62855        28.14203         2.66457
H          3.48826        27.27123         3.10961
O         13.51317        14.65396         2.19077
H         12.70843        15.10020         2.53318
O          9.90117        21.47782        -0.91792
H          9.76620        20.59801        -1.32958
O          3.36249        24.91769        -0.60378
H          4.20991        24.65376        -1.02173
O          6.03298         6.12924         0.93514
H          6.81032         6.60159         1.32278
O         17.27773         3.80725         1.19815
H         18.07804         4.23952         1.56521
O         11.06148        19.05901         2.77432
H         11.91207        19.46248         3.08646
O         10.93136        10.78713         1.55193
H         11.04723         9.87574         1.91877
O         14.77359        39.47161        -2.04252
H         14.73220        39.00355        -2.90146
O          6.24529         8.01710        -2.25965
H          5.55727         7.48523        -2.72830
O          6.76390        12.99606        -1.95914
H          7.27095        12.32099        -2.47599
O          4.68839         5.97080        -2.46997
H          3.88112         5.51787        -2.79685
O         15.04522         6.01881        -2.50695
H         14.58396         5.30583        -3.01111
O          2.42245        22.49649        -0.51342
H          2.41336        23.38049        -0.95243
O         11.43895         8.24740        -2.19359
H         10.68627         7.99792        -2.76923
O          5.96876        15.70852         2.25787
H          5.81161        16.45768         2.87088
H          1.18991         2.49749        -1.76909
H         -0.94856         3.76992        -1.83091
H         -1.01994         6.16542        -1.24972
H         -1.04108         7.94414        -0.40813
H         -1.05163        10.32205         0.09796
H         -1.05274        12.19226         0.48253
H         -1.06949        14.59982         0.75126
H         -1.09886        16.48526         0.85861
H         -1.12632        18.90529         1.04805
H         -1.09788        20.83703         0.89642
H         -1.11325        23.24772         1.11714
H         -1.08641        25.16167         0.73941
H         -1.02144        27.54909         0.40210
H         -0.97732        29.34657        -0.03443
H         -0.97184        31.68184        -0.67207
H         -0.96161        33.53224        -1.12937
H         -0.91633        35.92085        -1.69253
H          0.32342        38.03407        -2.00193
H          3.59760         2.39793        -1.26581
H          2.46625        39.28921        -2.02010
H          6.14636         2.39780        -1.19375
H          4.90856        39.33680        -1.75733
H          8.61971         2.44654        -1.39363
H          7.35569        39.38874        -1.54960
H         11.11221         2.49855        -1.54026
H          9.82305        39.43238        -1.38794
H         13.53903         2.47295        -1.16196
H         12.31943        39.44833        -1.24947
H         15.91005         2.39419        -0.77517
H         14.83057        39.06423        -0.03242
H         18.50066         2.45392        -1.13065
H         17.24714        39.40497        -1.41705
H         20.61095         3.72106        -1.05237
H         21.88652         5.74710        -0.43875
H         21.96468         8.17376        -0.07058
H         21.95414        10.10185         0.20347
H         21.94373        12.51939         0.37707
H         21.92789        14.39844         0.48665
H         21.91395        16.82023         0.58053
H         21.90356        18.70112         0.34379
H         21.90361        21.11935         0.54621
H         21.93607        22.98032         0.85397
H         21.91142        25.39943         0.67950
H         21.90201        27.26744         0.58339
H         21.89839        29.65412         0.17063
H         21.90678        31.46662        -0.32778
H         21.91461        33.85487        -0.75621
H         21.91006        35.72507        -1.15822
H         21.86586        38.15278        -1.56202
H         19.70027        39.39322        -1.62606
