         620
 CSIRO Nanostructure Databank - Neutral Graphene Oxide Data Set
C         23.17342        27.58433        -1.13179
C         23.08344        28.88940        -0.77508
C         22.99707        31.75449         0.07035
C         22.94910        33.06485         0.50940
C         22.87591        35.94954         1.04742
C         22.85974        37.31728         1.18669
C         22.83740        40.25522         1.36066
C         22.80465        41.61046         1.32487
C         22.99109        44.56488         1.67256
C         23.01775        45.95908         1.78268
C         25.70879        24.98328        -2.08548
C         24.49423        25.59782        -1.83118
C         25.63455        27.71484        -1.42746
C         24.42992        26.96989        -1.49842
C         25.58775        29.18238        -1.22908
C         24.23209        29.80500        -0.90509
C         25.43480        31.82890        -0.03043
C         24.22277        31.13496        -0.25298
C         25.38772        33.16821         0.46481
C         24.13613        33.81738         0.68117
C         25.31390        35.92348         1.24197
C         24.10020        35.22322         1.01076
C         25.30227        37.35989         1.40731
C         24.06649        38.06512         1.31161
C         25.29681        40.18976         1.22787
C         24.06909        39.50029         1.26987
C         25.32814        41.62981         0.93087
C         23.99681        42.39109         0.97064
C         25.32526        44.53898         0.69593
C         24.07435        43.84279         1.18664
C         25.38421        45.98773         1.10755
C         24.21091        46.68387         1.49945
C         25.43165        48.78737         1.40906
C         24.26257        48.09064         1.67404
C         28.34701        23.83450        -2.85462
C         28.20879        25.04839        -2.19081
C         26.92948        25.69573        -1.96525
C         28.10111        27.89232        -1.56503
C         26.86783        27.07334        -1.61079
C         28.08227        29.25289        -0.98309
C         26.81036        29.90854        -0.82208
C         27.92782        31.91368         0.06146
C         26.72443        31.20579        -0.28533
C         27.87638        33.19661         0.60085
C         26.60265        33.86838         0.75988
C         27.77377        35.86357         1.64855
C         26.54377        35.20135         1.19672
C         27.75895        37.36788         1.85941
C         26.50996        38.09768         1.57494
C         27.76235        40.25912         1.52047
C         26.52147        39.50396         1.45965
C         27.80680        41.62608         1.30709
C         26.59532        42.38786         1.08519
C         27.85840        44.52062         1.07962
C         26.61000        43.77173         1.00105
C         27.84083        45.92071         0.98073
C         26.60605        46.68170         0.98812
C         27.83871        48.84477         0.67244
C         26.61364        48.10746         1.06321
C         27.96557        50.29763         0.81187
C         30.80983        23.84258        -2.68005
C         29.59820        23.23253        -3.08236
C         30.74839        25.08960        -1.99510
C         29.42524        25.66826        -1.55194
C         30.60253        27.87376        -1.09540
C         29.41795        27.18243        -1.62528
C         30.54573        29.18294        -0.64577
C         29.27352        29.87701        -0.62187
C         30.42890        31.84070         0.47331
C         29.27165        31.36036        -0.37018
C         30.34756        33.17767         0.97547
C         29.10737        33.88095         0.97230
C         30.26377        35.93728         1.69480
C         29.07022        35.21530         1.42525
C         30.25006        37.38145         1.86981
C         29.04875        38.07529         1.83792
C         30.32030        40.27726         1.96153
C         28.99880        39.54067         1.92997
C         30.36067        41.67512         1.52153
C         29.11563        42.31865         0.98287
C         30.34971        44.46601         1.17820
C         29.11279        43.81459         1.17560
C         30.40892        45.93004         1.26881
C         29.09452        46.66974         1.14854
C         30.43575        48.79052         0.73270
C         29.15200        48.07039         0.66241
C         30.42520        50.18108         0.59952
C         29.17409        50.90525         0.70083
C         33.52028        21.65702        -4.12932
C         32.26784        22.15728        -3.82405
C         33.28574        23.89943        -2.44322
C         32.11165        23.29320        -2.99162
C         33.19544        25.14440        -1.74788
C         31.91885        25.76308        -1.63384
C         33.10338        27.79241        -0.55829
C         31.88173        27.17948        -1.23545
C         32.88582        29.04288         0.17857
C         31.71805        29.77276         0.00385
C         32.76587        31.66738         1.24903
C         31.60407        31.10039         0.58733
C         32.71716        33.06227         1.62437
C         31.52062        33.81798         1.47914
C         32.70330        35.94794         1.99460
C         31.49023        35.23255         1.73434
C         32.75949        37.34599         2.00764
C         31.52192        38.10409         1.93888
C         32.84550        40.25279         2.11597
C         31.55826        39.48750         1.92531
C         32.83193        41.64746         1.54050
C         31.59027        42.33712         1.38281
C         32.83337        44.44927         1.00628
C         31.59946        43.75776         1.12931
C         32.85938        45.89422         0.86955
C         31.66662        46.63372         0.94587
C         32.90890        48.74330         0.66165
C         31.66970        48.05361         0.79873
C         32.91095        50.17352         0.49791
C         31.67627        50.88613         0.45479
C         32.87916        52.95319         0.03990
C         31.68784        52.27841         0.21133
C         36.25185        20.99215        -5.09322
C         35.99755        21.68928        -3.89816
C         34.69442        22.18604        -3.53472
C         35.68637        23.82437        -1.92098
C         34.56220        23.28337        -2.62572
C         35.56786        24.98907        -1.15714
C         34.34666        25.71896        -1.10293
C         35.38043        27.41658         0.42410
C         34.27269        26.92615        -0.33726
C         35.19176        28.62451         1.30047
C         33.93900        29.48349         1.12137
C         35.01334        31.50329         2.36791
C         33.91499        30.90657         1.49705
C         35.12299        32.99935         2.12308
C         33.91939        33.71152         2.03403
C         35.25643        35.90233         2.19251
C         33.90936        35.16024         2.25626
C         35.25320        37.32743         1.83879
C         34.03498        38.04952         1.91328
C         35.26488        40.13046         1.40790
C         34.06420        39.45679         1.74340
C         35.27954        41.55613         1.21043
C         34.04562        42.30270         1.26196
C         35.30617        44.39475         0.79462
C         34.05640        43.71655         0.99594
C         35.32621        45.82694         0.67880
C         34.10963        46.58038         0.72358
C         35.39327        48.69730         0.55639
C         34.13483        48.00552         0.64994
C         35.40798        50.15437         0.41866
C         34.14362        50.88338         0.36244
C         35.35890        53.07329         0.03122
C         34.11275        52.27937         0.13309
C         35.39641        54.36370        -0.66301
C         38.66707        20.85054        -4.62135
C         37.52867        20.54778        -5.41954
C         38.49045        21.62332        -3.44227
C         37.12803        21.93493        -3.00939
C         38.18718        23.70702        -1.45837
C         36.96150        23.08015        -1.92526
C         38.06552        25.08883        -0.85877
C         36.69486        25.36190        -0.22729
C         37.80414        27.31922         0.95935
C         36.61605        26.76521         0.35159
C         37.72399        28.51443         1.74214
C         36.42553        29.22606         1.95929
C         37.60964        31.52426         2.29645
C         36.35560        30.72498         2.38331
C         37.57225        32.88549         1.72607
C         36.35985        33.69890         1.99399
C         37.70129        35.81581         1.75749
C         36.42563        35.08244         1.89987
C         37.69445        37.24125         1.37342
C         36.46783        37.97340         1.46939
C         37.68070        40.03623         0.85714
C         36.46859        39.38074         1.23651
C         37.67371        41.44401         0.66308
C         36.49303        42.20635         0.85510
C         37.76056        44.34268         0.54540
C         36.51663        43.65332         0.70907
C         37.78304        45.75500         0.56446
C         36.57034        46.51338         0.58115
C         37.88473        48.65360         0.50684
C         36.58578        47.95154         0.54902
C         37.89811        50.14667         0.30031
C         36.60210        50.83507         0.23257
C         37.87017        52.91027        -0.52365
C         36.67625        52.29893         0.08334
C         37.84285        54.25474        -0.89004
C         36.58301        54.94807        -0.98444
C         41.47430        18.95541        -6.27786
C         40.22131        19.48381        -6.03909
C         41.09433        20.76087        -4.14049
C         39.98858        20.37010        -4.95368
C         40.90756        21.66255        -3.03864
C         39.60102        22.07991        -2.67921
C         40.59810        23.54823        -0.91744
C         39.43085        23.09924        -1.65298
C         40.38401        24.54443         0.16482
C         39.10958        25.31884         0.20990
C         40.25724        27.22321         1.35483
C         39.05255        26.64611         0.86930
C         40.18506        28.44934         2.07114
C         38.89682        28.90108         2.42017
C         40.12379        31.58441         2.26310
C         38.83355        31.04602         2.68668
C         40.14506        32.82946         1.69355
C         38.88039        33.55864         1.48106
C         40.19431        35.71751         1.17122
C         38.96055        35.04138         1.61344
C         40.15678        37.11799         0.89743
C         38.89086        37.86600         0.96241
C         40.10381        39.93240         0.30959
C         38.87774        39.26129         0.67260
C         40.14472        41.29525         0.18653
C         38.87206        42.10091         0.03161
C         40.18527        44.20888         0.08486
C         38.98864        43.58555         0.31614
C         40.34258        45.66402         0.25010
C         39.07967        46.46331         0.54859
C         40.27236        48.50400        -0.21590
C         39.11635        47.88911         0.20587
C         40.20591        49.89656        -0.72611
C         39.06522        50.77260        -0.37153
C         40.15096        52.68222        -1.61357
C         39.04009        52.09085        -0.75982
C         40.24488        54.18264        -1.49638
C         39.08883        54.93457        -1.25527
C         40.33845        56.99916        -1.59438
C         39.15836        56.35551        -1.29022
C         43.85080        18.63332        -5.59807
C         42.58462        19.32464        -5.47332
C         43.55404        20.73824        -3.67353
C         42.39414        20.26738        -4.44605
C         43.29968        21.51838        -2.45964
C         42.03716        22.03880        -2.22045
C         43.03347        23.42736        -0.40060
C         41.84970        22.97836        -1.12314
C         42.92160        24.54144         0.56112
C         41.57581        25.14039         0.84661
C         42.71835        27.23873         1.58023
C         41.52034        26.54601         1.27513
C         42.67970        28.58509         1.99101
C         41.41316        29.21152         2.38957
C         42.65390        31.51590         2.08589
C         41.38421        30.80681         2.42478
C         42.65471        32.88366         1.71563
C         41.39009        33.47331         1.14924
C         42.61650        35.66211         0.95022
C         41.37988        34.98622         1.14254
C         42.59495        37.04761         0.60762
C         41.35561        37.74550         0.52998
C         42.61707        39.80632        -0.20889
C         41.28808        39.09689        -0.12909
C         42.64410        41.21656        -0.44909
C         41.44327        41.96817        -0.00879
C         42.59537        44.08751        -0.79472
C         41.45216        43.44910        -0.08492
C         42.60769        45.58660        -0.90933
C         41.48441        46.36804        -0.35223
C         42.73027        48.42289        -0.85308
C         41.49365        47.74867        -0.47172
C         42.74911        49.82140        -1.09380
C         41.47004        50.54133        -1.23739
C         42.67590        52.64870        -1.69519
C         41.48534        51.99905        -1.42386
C         42.69326        54.08395        -1.92480
C         41.48154        54.83231        -1.76079
C         42.75505        56.89797        -2.14488
C         41.52287        56.25534        -1.83496
C         44.90648        18.89372        -4.78471
C         45.95832        20.19975        -2.82974
C         44.89663        20.04513        -3.86923
C         45.66941        20.95730        -1.59279
C         44.27723        21.52039        -1.30970
C         45.47229        23.42536         0.01989
C         44.27661        22.85761        -0.59088
C         45.39631        24.68561         0.68844
C         44.13161        25.32859         0.85474
C         45.21637        27.28272         1.85373
C         44.01963        26.60054         1.40031
C         45.15419        28.64172         2.17926
C         43.92592        29.37925         1.75396
C         45.10880        31.53778         2.04837
C         43.88002        30.82839         2.13012
C         45.10696        32.93583         1.78239
C         43.86337        33.59134         1.53770
C         45.08515        35.66948         0.94920
C         43.85925        34.97485         1.11948
C         45.07545        37.03489         0.49482
C         43.83108        37.70802         0.31368
C         45.04984        39.66965        -0.61797
C         43.79851        39.06898        -0.13674
C         45.04491        41.12720        -1.05679
C         43.81665        41.90459        -0.79438
C         45.03845        44.03254        -1.23559
C         43.86858        43.34216        -0.90107
C         45.08709        45.47054        -1.28330
C         43.91114        46.24912        -1.06342
C         45.22466        48.33480        -1.04860
C         43.92978        47.65420        -0.97499
C         45.23470        49.85874        -1.24129
C         43.93817        50.54105        -1.36041
C         45.13386        52.57526        -2.10458
C         43.92400        51.91135        -1.71849
C         45.11842        53.96604        -2.41278
C         43.89623        54.73997        -2.23917
C         43.89644        56.16298        -2.36020
C         48.35190        20.17464        -2.26417
C         47.24552        19.80405        -3.09211
C         48.21335        21.08723        -1.24601
C         46.86693        21.53519        -0.85056
C         47.90173        23.39657         0.47932
C         46.73636        22.80843        -0.10468
C         47.81027        24.59026         1.22057
C         46.55824        25.27791         1.28786
C         47.63009        27.22463         2.47460
C         46.43902        26.54892         1.91282
C         47.64795        28.70342         2.48671
C         46.32716        29.41160         2.72690
C         47.54258        31.56270         2.22791
C         46.34650        30.85253         2.24884
C         47.56505        32.95885         1.89970
C         46.34087        33.63580         1.64601
C         47.55430        35.70207         1.06161
C         46.32819        35.00969         1.22557
C         47.54539        37.05019         0.56892
C         46.32109        37.71073         0.27136
C         47.51248        39.75494        -0.50009
C         46.33493        39.05545        -0.25650
C         47.53380        41.14433        -0.95403
C         46.33643        41.83640        -1.14193
C         47.52970        43.96682        -1.85157
C         46.20766        43.21674        -1.76707
C         47.54902        45.42893        -1.74811
C         46.34251        46.15469        -1.51385
C         47.59534        48.27360        -1.79173
C         46.40687        47.57402        -1.46944
C         47.60158        49.70221        -1.99565
C         46.42069        50.46722        -1.84960
C         47.54625        52.48032        -2.70167
C         46.36291        51.83483        -2.23047
C         47.47808        53.84988        -3.03479
C         46.30282        54.57019        -2.88431
C         50.39740        20.62078        -0.17567
C         49.29122        21.47771        -0.34590
C         50.20532        22.99884         1.34480
C         49.15785        22.64155         0.45740
C         50.29842        24.43376         1.78900
C         48.93350        24.99028         2.18277
C         50.19399        27.27487         2.56134
C         48.93122        26.48380         2.55234
C         50.12747        28.70207         2.58866
C         48.83754        29.38265         2.56453
C         50.08232        31.64483         2.55453
C         48.79363        30.87062         2.63244
C         50.04108        33.03000         2.04385
C         48.81089        33.67517         1.78683
C         50.01677        35.76426         1.22760
C         48.79757        35.04947         1.35404
C         50.00159        37.12087         0.72602
C         48.78657        37.71850         0.34801
C         50.07769        39.85335        -0.27431
C         48.78441        39.03613        -0.30978
C         50.00362        41.31458        -0.51411
C         48.81049        41.85041        -1.02430
C         50.06052        44.02372        -1.41869
C         48.84033        43.22609        -1.55107
C         50.03757        45.39746        -1.77247
C         48.78447        46.11015        -1.84951
C         50.03126        48.21052        -2.22458
C         48.80905        47.53454        -1.96160
C         50.02523        49.61180        -2.51907
C         48.80043        50.34736        -2.44707
C         49.98662        52.33749        -3.21229
C         48.78021        51.72953        -2.79017
C         51.28690        20.84400         0.86577
C         53.00028        23.06043         2.76006
C         51.18006        22.03156         1.60538
C         52.83547        24.44909         2.63721
C         51.54561        25.13627         2.27158
C         52.62006        27.35146         2.80798
C         51.42782        26.59618         2.62337
C         52.57989        28.78077         2.77520
C         51.33780        29.46957         2.62091
C         52.56272        31.64687         2.46819
C         51.35909        30.90137         2.53611
C         52.50217        33.04826         2.17405
C         51.27504        33.71369         1.87460
C         52.47558        35.83360         1.40971
C         51.25859        35.11065         1.52031
C         52.43994        37.33505         1.39645
C         51.21483        37.90668         0.72748
C         52.43017        40.07471         0.67568
C         51.22659        39.24388         0.39759
C         52.41868        41.54120         0.22475
C         51.20258        42.08360        -0.41946
C         52.50084        44.09943        -1.04878
C         51.26233        43.39714        -0.95855
C         52.53210        45.31343        -1.95046
C         51.25891        46.11254        -1.91600
C         52.50643        48.17710        -2.48566
C         51.26494        47.48299        -2.21957
C         52.48912        49.53966        -2.85371
C         51.23247        50.26539        -2.89428
C         51.17500        51.63118        -3.25415
C         55.36789        23.22272         3.23198
C         54.24564        22.45365         3.03579
C         55.24914        24.63132         3.26154
C         53.98274        25.24411         2.97257
C         54.96515        27.43830         3.51182
C         53.86615        26.67435         3.04848
C         54.86892        28.85939         3.51630
C         53.78287        29.54549         2.95945
C         55.05186        31.61665         2.31041
C         53.84517        30.96820         2.63666
C         55.07477        33.06934         2.05272
C         53.73654        33.82884         2.08378
C         54.93535        35.83692         1.16772
C         53.70897        35.18763         1.52230
C         54.93058        37.22178         0.83536
C         53.71535        37.97482         0.89799
C         54.99086        40.06864         0.61860
C         53.71447        39.34836         0.72570
C         54.98029        41.58196         0.29557
C         53.69696        42.23241        -0.02044
C         54.97727        44.32667        -0.55738
C         53.70349        43.50143        -0.61722
C         54.97678        45.55305        -1.44773
C         53.77781        46.14704        -1.85358
C         54.98487        48.20361        -2.47530
C         53.75773        47.49749        -2.30217
C         54.93123        49.54791        -2.93293
C         53.72780        50.19095        -3.11704
C         57.74231        24.86464         3.73203
C         56.39615        25.42834         3.63243
C         58.03658        27.82815         3.32037
C         56.18194        26.77837         3.86531
C         57.83891        29.06433         2.66140
C         56.70986        29.88220         2.96299
C         57.37223        31.51382         1.31677
C         56.34670        30.97416         2.17917
C         57.27867        32.87497         0.87777
C         56.17229        33.68127         1.28846
C         57.26978        35.67062         0.33688
C         56.12765        35.05566         0.96139
C         57.30157        37.08587         0.13408
C         56.13703        37.87521         0.41168
C         57.37902        39.93364        -0.15475
C         56.18728        39.28240         0.27562
C         57.40543        41.35997        -0.38310
C         56.21880        42.14036        -0.29210
C         57.43791        44.13743        -0.98342
C         56.22480        43.48628        -0.70344
C         57.44558        45.64761        -1.01008
C         56.19397        46.25139        -1.59849
C         57.49454        48.19872        -2.32382
C         56.22762        47.55028        -2.15216
C         58.88991        25.50532         3.37130
C         59.83113        27.26613         1.82208
C         58.94627        26.87030         2.86063
C         59.72801        28.51525         1.22650
C         58.70467        29.42911         1.59272
C         59.50801        31.30245         0.14670
C         58.52310        30.73958         1.00313
C         59.43570        32.61901        -0.25085
C         58.36229        33.45512         0.16091
C         59.52473        35.52854        -0.59890
C         58.38290        34.87986        -0.05405
C         59.58626        36.89885        -0.70656
C         58.48392        37.71710        -0.33669
C         59.72488        39.81543        -0.85633
C         58.53554        39.15374        -0.44930
C         59.77130        41.18379        -1.00557
C         58.61863        41.98670        -0.80317
C         59.87638        44.12168        -1.21700
C         58.65409        43.41397        -1.00447
C         59.89967        45.47962        -1.50272
C         58.71353        46.23511        -1.55789
C         58.69012        47.55505        -2.05976
O         40.01333        46.10235         1.61607
O         51.13108        25.12599         0.80820
O         54.63590        33.79585         3.24568
O         38.08161        33.05411         0.34247
O         34.08830        28.49416         2.24753
O         28.87367        27.78510        -2.83158
O         29.72633        46.48964         2.45782
O         48.12815        26.68323         3.77331
O         49.36483        31.45170         3.85234
O         44.92806        40.04540        -2.04087
O         55.91864        29.59849         4.09050
O         44.62119        21.33070        -4.53403
O         24.60668        41.96497        -0.31358
O         40.50504        49.88825        -2.18784
O         24.79769        29.86591        -2.26297
O         52.20864        41.13336         1.65166
O         29.52607        40.06540         3.20568
O         32.85232        27.97534        -2.00398
O         55.06327        44.87607         0.76367
O         51.97267        22.13120         2.74281
O         36.27770        29.64387         3.34655
O         28.42084        48.30037        -0.57398
O         41.82964        42.81207         1.18213
O         45.47713        49.25206         0.07046
O         41.46265        29.99635         3.61982
O         42.19213        24.21226         1.80506
O         27.64278        36.44296         2.99788
O         46.14097        20.34720        -0.34094
O         38.84749        29.86489         3.43321
O         38.14197        49.57288         1.63857
O         36.84738        21.67259        -1.60396
O         57.23357        27.52485         4.43549
O         55.17311        41.09083         1.65487
O         34.60970        35.58795         3.46484
O         36.16560        53.02886         1.25246
O         49.67481        39.10287        -1.47696
O         39.30631        24.18440         1.10270
O         38.57284        35.52282         2.95072
O         42.20002        44.72771        -2.05200
O         48.31793        43.39914        -2.94491
O         52.34296        37.70000         2.81584
H         52.45432        38.67319         2.88675
O         34.48971        31.40567         3.72654
H         34.66031        30.48170         4.02654
O         44.03332        29.47331         0.24313
H         43.32059        30.07232        -0.06967
O         39.76271        52.40638        -3.00485
H         39.86244        51.42888        -3.12371
O         38.25008        26.06104        -1.92057
H         39.04939        25.82127        -2.43371
O         46.16647        29.46780         4.18216
H         46.96939        29.88657         4.56029
O         52.59193        44.72147        -3.31182
H         51.72329        44.29569        -3.48219
O         45.80642        42.94161        -3.14355
H         46.62736        42.69091        -3.62793
O         29.22029        42.13548        -0.49677
H         28.48367        42.64424        -0.90115
O         32.94772        40.46336         3.57795
H         32.86438        39.58667         4.01121
O         40.95797        38.79826        -1.54518
H         41.76366        38.42655        -1.96497
O         38.61077        42.05258        -1.42779
H         38.57146        41.10736        -1.69073
O         48.63038        24.24374         3.39182
H         48.06638        24.83216         3.95197
O         36.58952        24.45406         0.90301
H         35.76418        24.65706         1.38994
O         57.42258        46.05070         0.40456
H         56.54928        45.68013         0.77069
O         43.64557        20.58318        -0.37593
H         44.35200        20.29722         0.25103
O         29.51530        31.96498        -1.69997
H         28.87275        31.56596        -2.32551
O         29.32331        25.38662        -0.10828
H         29.31721        24.41237         0.00450
O         41.41877        33.08865        -0.27954
H         42.12724        33.61395        -0.70961
O         25.23231        44.56330        -0.77776
H         25.01536        43.63606        -1.04934
H         22.28599        26.93713        -1.06821
H         22.13094        29.27784        -0.38805
H         22.05368        31.21343        -0.08172
H         21.96914        33.51866         0.70542
H         21.92130        35.42497         0.91010
H         21.89409        37.83814         1.14830
H         21.90520        39.71632         1.57755
H         21.86206        42.13489         1.53378
H         22.06866        44.03800         1.95617
H         22.12521        46.50021         2.12514
H         25.72515        23.91633        -2.34735
H         23.56233        25.01766        -1.89323
H         25.43092        49.88314         1.48532
H         23.35479        48.62864         1.98117
H         27.45707        23.33657        -3.26646
H         27.07272        50.90349         1.02016
H         29.61998        22.27980        -3.62777
H         29.20648        51.99946         0.78550
H         33.60028        20.79618        -4.80733
H         31.38510        21.67986        -4.27024
H         32.85826        54.03674        -0.13478
H         30.75009        52.84331         0.14655
H         35.42521        20.78015        -5.78562
H         34.45708        54.86446        -0.93570
H         37.65590        19.97806        -6.34932
H         36.56852        55.93739        -1.46277
H         41.61948        18.23109        -7.09209
H         39.38647        19.17452        -6.68196
H         40.37619        58.09713        -1.63811
H         38.26193        56.95157        -1.07218
H         43.90401        17.79399        -6.30745
H         42.78330        57.99513        -2.21159
H         45.78803        18.23682        -4.80262
H         44.82878        56.69299        -2.59496
H         49.34595        19.78934        -2.53043
H         47.46119        19.23106        -4.00546
H         48.36607        54.37442        -3.41079
H         46.30867        55.63397        -3.15480
H         50.48900        19.71395        -0.78780
H         49.99918        53.39651        -3.50111
H         52.07506        20.11957         1.10646
H         52.08321        52.15853        -3.57344
H         56.33116        22.73758         3.42980
H         54.29253        21.35865         3.09098
H         55.85931        50.10554        -3.11693
H         53.73963        51.23928        -3.44243
H         57.83123        23.79999         3.99630
H         57.52995        49.21951        -2.72856
H         59.82367        24.92132         3.34729
H         60.58937        26.55506         1.46399
H         60.42587        28.77380         0.41864
H         60.37367        30.69830        -0.15656
H         60.24470        33.02734        -0.87044
H         60.39633        34.93758        -0.90875
H         60.50427        37.35227        -1.10177
H         60.63596        39.23700        -1.05570
H         60.71418        41.64724        -1.32501
H         60.83121        43.57936        -1.18333
H         60.85602        45.96386        -1.75152
H         59.64096        48.05098        -2.30674
