         420
 CSIRO Nanostructure Databank - Neutral Graphene Oxide Data Set
C         27.84015        27.37619         0.57396
C         27.87259        28.81232         0.47560
C         26.69091        29.54113         0.23254
C         27.91066        31.65786         0.38267
C         26.71082        30.92401         0.17931
C         27.91699        33.10452         0.35129
C         26.73789        33.85211         0.12363
C         27.94887        35.96094         0.35479
C         26.75243        35.23296         0.13300
C         27.95332        37.41220         0.35678
C         26.75650        38.15040         0.24290
C         27.96740        40.26537         0.30400
C         26.76265        39.53565         0.22707
C         27.97329        41.71746         0.25938
C         26.77170        42.46667         0.20540
C         28.01510        44.55150         0.08707
C         26.78948        43.84610         0.10657
C         28.03712        45.97058        -0.20593
C         30.24713        27.33224         1.04229
C         28.95531        26.66251         0.87817
C         30.30696        28.79165         0.85580
C         29.10687        29.51430         0.64699
C         30.34727        31.66239         0.86248
C         29.12019        30.95014         0.61975
C         30.32370        33.08096         0.86562
C         29.13629        33.80988         0.57902
C         30.39305        35.97272         0.72539
C         29.15477        35.24803         0.56481
C         30.41151        37.40010         0.63741
C         29.18461        38.12009         0.47031
C         30.44342        40.25118         0.46113
C         29.19321        39.54926         0.42115
C         30.46065        41.67755         0.33029
C         29.21236        42.41063         0.26060
C         30.49878        44.55583         0.26173
C         29.22075        43.82893         0.21041
C         30.50013        46.05352        -0.08394
C         29.19055        46.65851        -0.38769
C         32.75932        24.48450         0.12475
C         31.59925        25.10707         0.47626
C         32.74164        27.34576         0.45220
C         31.55989        26.53107         0.84827
C         32.76553        28.77890         0.79783
C         31.56487        29.48352         0.91055
C         32.83320        31.61214         0.99951
C         31.58119        30.93472         0.98256
C         32.85113        33.06030         1.25355
C         31.53300        33.83202         1.21727
C         32.84566        35.96373         1.04523
C         31.59798        35.28240         0.97857
C         32.87388        37.39235         0.92182
C         31.64851        38.10061         0.74298
C         32.90803        40.22411         0.61719
C         31.66040        39.53006         0.61560
C         32.92251        41.62269         0.32650
C         31.69312        42.35295         0.21470
C         32.92230        44.44626        -0.24671
C         31.74252        43.79227         0.05886
C         32.94894        45.85291        -0.59083
C         31.75735        46.62080        -0.62161
C         32.97401        48.47129        -1.63937
C         31.79332        47.92166        -1.16508
C         35.31975        23.07043        -0.47209
C         35.24394        24.46689        -0.14318
C         34.04754        25.14042         0.09595
C         35.28212        27.40800         0.21571
C         34.02851        26.62291         0.16190
C         35.26822        28.76211         0.33437
C         34.09424        29.45034         0.99258
C         35.29944        31.65082         0.77966
C         34.06331        30.94218         0.82024
C         35.28456        33.07147         0.94812
C         34.09765        33.81226         1.07499
C         35.32836        35.97044         1.07866
C         34.08463        35.24068         1.10670
C         35.35048        37.41571         1.13253
C         34.11920        38.10598         0.99392
C         35.37254        40.24308         0.87293
C         34.13350        39.53160         0.83902
C         35.36806        41.62311         0.45329
C         34.15822        42.28113         0.14822
C         35.42746        44.38645        -0.45099
C         34.14551        43.61428        -0.55492
C         35.42807        45.74258        -0.83293
C         34.17783        46.45095        -1.01306
C         35.44414        48.32566        -2.03984
C         34.19144        47.75634        -1.55704
C         35.45728        49.42637        -2.91341
C         37.77957        23.13817        -0.74057
C         36.50631        22.45115        -0.75130
C         37.80089        24.51892        -0.41251
C         36.54349        25.17336         0.01392
C         37.80042        27.43599        -0.02655
C         36.55944        26.66527         0.19370
C         37.76538        28.80115        -0.03888
C         36.46548        29.56980        -0.10058
C         37.76778        31.63170         0.45495
C         36.54211        30.96670         0.48032
C         37.83219        33.05404         0.85052
C         36.54594        33.79848         1.05181
C         37.79111        35.93717         1.07921
C         36.53262        35.26178         0.98137
C         37.77153        37.32527         1.49561
C         36.58918        38.12407         1.36980
C         37.75662        40.42437         1.39168
C         36.58845        39.58673         1.28017
C         37.75948        41.74572         0.84802
C         36.60392        42.34701         0.34134
C         37.86219        44.41852        -0.29414
C         36.63167        43.72228        -0.13995
C         37.89599        45.75811        -0.80296
C         36.66026        46.42670        -1.03855
C         37.92920        48.27691        -2.07975
C         36.67968        47.70898        -1.67407
C         37.85712        49.24789        -3.09698
C         36.65391        49.83307        -3.50237
C         40.19242        20.38000        -1.51053
C         39.03482        21.07571        -1.44531
C         40.24079        23.15892        -0.87578
C         38.99766        22.45661        -1.00053
C         40.24480        24.57534        -0.65321
C         39.01047        25.25835        -0.42262
C         40.25480        27.36781        -0.17959
C         39.04251        26.68198        -0.19197
C         40.23574        28.81771         0.23445
C         39.03556        29.56686        -0.33856
C         40.24611        31.67379         0.29987
C         39.02614        30.99985         0.15598
C         40.29888        33.10489         0.50280
C         39.00181        33.85976         0.32186
C         40.28074        35.81380         1.41300
C         38.99752        35.25949         0.88058
C         40.26603        37.30715         1.60960
C         39.02429        37.81682         1.97856
C         40.26687        40.41483         1.58632
C         39.00456        39.96324         1.94872
C         40.31879        41.82490         1.18008
C         39.00232        42.53904         0.88964
C         40.31259        44.38846        -0.08876
C         39.08271        43.78545         0.11400
C         40.41900        45.69068        -0.83915
C         39.12873        46.44684        -1.00747
C         40.41957        48.52336        -1.47614
C         39.19213        47.75767        -1.55073
C         40.69484        49.79617        -2.14105
C         39.94984        50.28325        -3.25504
C         41.15109        52.37194        -3.35214
C         40.17725        51.52853        -3.85877
C         42.70662        20.36454        -1.56569
C         41.46836        20.95817        -0.96206
C         42.69753        23.16847        -1.02367
C         41.46966        22.46611        -1.00630
C         42.70993        24.59129        -0.83131
C         41.47962        25.28392        -0.62961
C         42.72301        27.41601        -0.40249
C         41.49292        26.69626        -0.39443
C         42.72888        28.84978        -0.21088
C         41.52269        29.55288        -0.02004
C         42.74959        31.63616         0.25651
C         41.51849        30.95163         0.16767
C         42.77636        33.01037         0.85751
C         41.49779        33.77835         0.67126
C         42.74673        35.89668         0.93263
C         41.54215        35.20418         0.86899
C         42.70729        37.42359         0.93993
C         41.52879        38.04223         1.71607
C         42.75722        40.33258         1.25001
C         41.52041        39.65318         1.70623
C         42.78731        41.68665         0.91465
C         41.56795        42.43486         0.74086
C         42.78990        44.49918         0.17879
C         41.54693        43.74371         0.25677
C         42.74555        45.90174         0.08679
C         41.48221        46.55216        -0.20203
C         42.76205        48.75860        -0.41022
C         41.46442        48.04384        -0.55204
C         42.66668        50.25205        -0.56481
C         41.76090        50.64330        -1.71250
C         43.02421        52.77826        -1.82745
C         41.95686        51.92658        -2.28060
C         43.85458        21.07196        -1.64168
C         45.15404        23.17452        -1.20309
C         43.92357        22.47102        -1.26362
C         45.16733        24.59119        -0.98153
C         43.94108        25.30237        -0.81746
C         45.18193        27.44524        -0.65235
C         43.95056        26.72786        -0.62174
C         45.18956        28.86870        -0.46880
C         43.96135        29.56698        -0.23628
C         45.22486        31.69953         0.04171
C         43.97337        30.96749         0.02788
C         45.24397        33.09484         0.31015
C         44.02131        33.81083         0.56464
C         45.28940        35.90641         1.02167
C         43.99120        35.19180         0.74264
C         45.20972        37.41636         0.89763
C         44.05310        38.09435         1.17033
C         45.31980        40.35635         1.21567
C         44.02496        39.57442         1.39870
C         45.25185        41.75660         0.76697
C         44.03485        42.41212         0.68980
C         45.23436        44.60669         0.47116
C         44.00979        43.83135         0.41989
C         45.21046        46.02587         0.51726
C         43.88718        46.73981         0.58780
C         45.16173        48.88514         0.16951
C         43.91256        48.14841         0.02759
C         45.17017        50.29427        -0.08124
C         44.00603        50.94953        -0.57170
C         44.03925        52.28639        -1.03734
C         47.59650        23.17795        -1.25868
C         46.40887        22.50093        -1.33988
C         47.63823        24.59422        -1.06692
C         46.40830        25.29743        -0.94438
C         47.64391        27.42363        -0.88690
C         46.41750        26.72713        -0.81470
C         47.61388        28.89503        -0.96848
C         46.39419        29.60991        -0.55472
C         47.68366        31.73036        -0.35766
C         46.43402        31.00625        -0.30231
C         47.69454        33.13569        -0.10900
C         46.48335        33.82585         0.21564
C         47.69244        35.94139         0.15806
C         46.49943        35.23056         0.39780
C         47.61738        37.43237        -0.08970
C         46.52715        38.09854         0.76735
C         47.70563        40.34180         0.34284
C         46.56327        39.58126         0.92013
C         47.74691        41.79872         0.56669
C         46.46333        42.46425         0.19829
C         47.68813        44.64312         0.62156
C         46.46715        43.93621         0.48003
C         47.66643        46.07998         0.66203
C         46.41386        46.75934         0.56279
C         47.60566        48.93320         0.54784
C         46.37997        48.20961         0.46175
C         47.56111        50.35119         0.42064
C         46.39605        51.00395         0.10363
C         50.12681        24.61550        -0.97198
C         48.88095        25.30608        -0.99650
C         50.14298        27.44573        -0.89153
C         48.88500        26.73356        -0.94485
C         50.17916        28.87574        -0.85351
C         48.92518        29.64504        -0.98253
C         50.14711        31.76903        -0.62173
C         48.91952        31.07354        -0.61426
C         50.15976        33.18916        -0.51904
C         48.91747        33.86421        -0.23676
C         50.07469        36.05133        -0.68417
C         48.89015        35.27340        -0.15398
C         50.12911        37.47712        -0.20037
C         48.96818        38.12517         0.06160
C         50.22364        40.31840         0.29953
C         48.94393        39.60739         0.03167
C         50.22467        41.77220         0.69572
C         48.92854        42.50854         0.67477
C         50.19621        44.64191         1.02893
C         48.91610        43.93274         0.69972
C         50.15891        46.13630         0.81196
C         48.89949        46.81437         0.73940
C         50.09903        48.94170         0.76245
C         48.86526        48.24187         0.70223
C         51.31638        25.29164        -0.86982
C         52.61546        27.41425        -0.71150
C         51.36116        26.71552        -0.82178
C         52.62220        28.83860        -0.71043
C         51.38825        29.57293        -0.75391
C         52.60012        31.72151        -0.78055
C         51.40568        31.03455        -0.73308
C         52.65532        33.21336        -1.01551
C         51.37837        33.92865        -0.64277
C         52.63357        36.04117        -0.40606
C         51.39699        35.32535        -0.56135
C         52.67446        37.46026        -0.31167
C         51.41054        38.20275        -0.44582
C         52.72333        40.38791         0.02958
C         51.45789        39.70070        -0.24217
C         52.69310        41.82053         0.22762
C         51.47295        42.50058         0.44496
C         52.71079        44.72157         0.43116
C         51.40340        43.96219         0.40147
C         52.74435        46.21859         0.72251
C         51.35813        46.85489         0.83194
C         51.30487        48.26942         0.80607
C         55.04897        27.41481        -0.49420
C         53.85927        26.72898        -0.61081
C         55.07434        28.83401        -0.53962
C         53.86203        29.53003        -0.69503
C         55.17957        31.73246        -0.63511
C         53.87063        30.98656        -0.88101
C         55.10174        33.18489        -0.30828
C         53.89592        33.89058        -0.45343
C         55.07764        35.99835         0.03317
C         53.87338        35.30202        -0.26787
C         55.09908        37.45190         0.09532
C         53.88064        38.18246        -0.07773
C         55.16086        40.30759         0.25925
C         53.91558        39.63367         0.04484
C         55.25428        41.82423         0.25861
C         53.92534        42.53885         0.34478
C         54.96570        44.46928         1.45060
C         53.92040        43.91336         0.66470
C         54.76878        45.74492         2.09177
C         53.68412        46.53161         1.85750
C         56.29652        29.56138        -0.28263
C         56.33159        30.91711        -0.22094
C         56.26556        33.87595         0.08994
C         56.25598        35.24990         0.24541
C         56.29645        38.15613         0.29594
C         56.32646        39.55569         0.35324
C         56.21302        42.37066         1.29635
C         56.07766        43.62595         1.80230
O         37.41709        33.33493         2.20404
O         48.08779        40.07864        -1.07477
O         41.77651        38.82345         2.88933
O         50.34889        40.69565         1.70344
O         33.15750        27.13151        -0.95301
O         38.94238        38.90334         2.85167
O         32.13798        33.42101         2.49006
O         47.29832        37.49072        -1.46509
O         40.98142        47.52226         0.75943
O         36.65863        25.77399         1.36850
O         51.34045        39.13519        -1.58415
O         38.98233        49.51826        -3.88956
O         51.99154        44.50443        -0.82586
O         47.01472        38.69936         2.01260
O         54.72412        31.44080        -2.00724
O         44.79741        40.06789         2.54781
O         48.19532        29.39235        -2.23841
O         31.06279        26.82989         2.17498
O         30.59883        45.58148         1.30159
O         39.62458        42.65607         2.20487
O         43.58921        46.93168         2.02354
H         42.64575        47.21654         2.07073
O         39.15463        29.61890        -1.78517
H         38.29615        29.96272        -2.12537
O         42.86744        32.75860         2.31233
H         42.78973        33.62831         2.76272
O         53.35100        46.81987        -0.46326
H         52.90542        46.41123        -1.23885
O         38.76360        33.95256        -1.12396
H         39.53058        34.41057        -1.52773
O         40.31897        35.30514         2.82338
H         39.43201        35.44885         3.22109
O         36.24875        29.81254        -1.55597
H         35.86046        28.99693        -1.94095
O         42.37879        37.78334        -0.45371
H         43.08279        37.42225        -1.03515
O         41.49423        20.58654         0.47153
H         40.70918        21.00209         0.88828
O         45.49518        35.71833         2.47508
H         46.09430        36.43172         2.78766
O         34.03177        43.27727        -1.99671
H         33.21849        42.73843        -2.10280
O         52.77038        33.35747        -2.47215
H         53.53930        32.79858        -2.74350
O         40.04000        28.83039         1.68094
H         40.81056        28.39326         2.09948
O         40.92424        45.38777        -2.18162
H         40.25717        44.83235        -2.63705
O         46.34006        42.33993        -1.27747
H         46.86947        41.56098        -1.56850
O         41.98328        50.72641         0.65951
H         42.50537        50.41179         1.42810
O         50.42706        44.44578         2.47098
H         49.60655        44.69847         2.94513
O         49.76822        36.17333        -2.10960
H         48.89964        36.66768        -2.15520
O         55.84212        42.16961        -1.04951
H         55.82845        43.14737        -1.12771
O         34.39302        29.25885         2.43983
H         33.74023        29.78669         2.94905
H         26.87406        26.86652         0.44550
H         25.74521        28.99906         0.08945
H         25.76867        31.45285        -0.01387
H         25.78338        33.34196        -0.05928
H         25.80908        35.76357        -0.04846
H         25.79006        37.63497         0.17324
H         25.80194        40.05931         0.14020
H         25.80069        41.95487         0.22416
H         25.84557        44.40456         0.02988
H         27.07198        46.46451        -0.39385
H         28.90186        25.57482         1.02246
H         29.14841        47.69747        -0.74441
H         32.71949        23.40575        -0.08329
H         30.67591        24.51606         0.55789
H         32.96012        49.49432        -2.03864
H         30.87667        48.52566        -1.20234
H         34.39439        22.48001        -0.52139
H         34.51847        49.90248        -3.22564
H         36.48758        21.38008        -0.99390
H         36.65935        50.58814        -4.29881
H         40.19474        19.33669        -1.86009
H         38.10115        20.59900        -1.77684
H         41.32289        53.36435        -3.79145
H         39.56054        51.82233        -4.71779
H         42.68122        19.30871        -1.87425
H         43.08321        53.79964        -2.22961
H         44.75609        20.58549        -2.04049
H         44.91804        52.91976        -0.85298
H         48.53066        22.61126        -1.36407
H         46.42899        21.41383        -1.49201
H         48.47616        50.94504         0.54157
H         46.41849        52.09556        -0.00990
H         50.14869        23.51876        -1.00589
H         50.11416        50.03927         0.75004
H         52.24754        24.71201        -0.83134
H         52.24678        48.83536         0.80861
H         55.99404        26.86512        -0.37888
H         53.88347        25.63159        -0.60042
H         55.50145        46.04372         2.85734
H         53.55249        47.47408         2.40863
H         57.19299        28.97982        -0.02102
H         57.24541        31.41460         0.13196
H         57.20877        33.33376         0.23559
H         57.19404        35.74927         0.51835
H         57.24873        37.61920         0.39296
H         57.29786        40.05561         0.46833
H         57.08858        41.76772         1.57787
H         56.82057        44.01544         2.51494
