         661
 CSIRO Nanostructure Databank - Neutral Graphene Oxide Data Set
C          6.36663        32.07336        -2.32497
C          6.28077        33.37268        -1.96044
C          8.71904        27.70019        -1.95167
C          8.72324        29.13140        -1.91765
C          7.62181        29.87379        -2.34958
C          8.75331        31.97069        -1.61912
C          7.68974        31.36214        -2.48666
C          8.79347        33.47182        -1.59328
C          7.44213        34.16119        -1.58669
C          8.55307        36.22355        -0.76202
C          7.39095        35.49123        -1.27158
C          8.54613        37.63908        -0.61829
C         11.01176        23.30707        -1.35478
C         11.04496        24.70641        -1.33906
C          9.77189        25.44936        -1.69394
C         11.03475        27.62567        -1.21891
C          9.84908        26.96156        -1.61214
C         11.05073        29.04371        -1.05032
C          9.89518        29.79329        -1.39446
C         10.94797        31.83565        -0.48837
C          9.84715        31.21960        -1.18215
C         10.80528        33.21430         0.02314
C          9.64001        34.02365        -0.47501
C         10.77002        36.09211         0.40279
C          9.66415        35.48166        -0.34031
C         10.77308        37.59563         0.50667
C          9.64439        38.34603        -0.08822
C         10.83991        40.40949         0.53548
C          9.70293        39.74615        -0.00555
C         10.85077        41.80300         0.69872
C         13.23533        18.94681        -0.58301
C         13.25459        20.32905        -0.69591
C         12.10971        21.11895        -1.01586
C         13.37908        23.22700        -0.70818
C         12.16015        22.52984        -1.05130
C         13.41215        24.65324        -0.66148
C         12.23714        25.38491        -1.00985
C         13.48909        27.56090        -0.46476
C         12.28296        26.85978        -1.05305
C         13.36829        28.97964        -0.04506
C         12.18755        29.70845        -0.45577
C         13.10497        31.73649         0.69791
C         12.08139        31.08990        -0.15369
C         13.16694        33.21069         0.68893
C         12.03001        33.94139         0.44485
C         13.25309        36.06953         0.79972
C         12.05806        35.37625         0.52665
C         13.27238        37.51197         0.96046
C         12.05693        38.28290         0.75698
C         13.16574        40.36794         1.56510
C         12.03826        39.65570         0.85800
C         13.28264        41.80956         1.15982
C         12.05408        42.52048         0.97404
C         13.26866        44.64200         1.13989
C         12.05182        43.92663         1.01925
C         13.26521        45.99762         1.49591
C         15.70013        14.55367        -0.23416
C         15.71576        16.06823        -0.24420
C         14.53129        16.73383        -0.25102
C         15.71239        18.87145        -0.74609
C         14.48344        18.23515        -0.10236
C         15.70432        20.34744        -0.47451
C         14.52795        21.03621        -0.49455
C         15.69829        23.15346         0.07574
C         14.54363        22.49086        -0.39638
C         15.68402        24.53666         0.28883
C         14.58068        25.30808        -0.14327
C         15.64906        27.35969         0.70739
C         14.58267        26.73597         0.09285
C         15.53509        28.75884         1.24368
C         14.40019        29.56362         0.66623
C         15.52625        31.71238         1.70844
C         14.29751        30.95097         1.16091
C         15.70333        33.08527         1.05927
C         14.47391        33.87727         0.72734
C         15.71105        35.97751         1.13210
C         14.50314        35.34455         0.86418
C         15.70885        37.41019         1.44865
C         14.46257        38.16326         1.31551
C         15.82916        40.37586         1.30686
C         14.48819        39.61080         1.56260
C         15.76612        41.79032         0.89944
C         14.51396        42.48902         1.02702
C         15.66057        44.54148         0.34016
C         14.49434        43.90518         0.84300
C         15.58353        45.87026        -0.21395
C         14.50001        46.69800         1.81039
C         16.11737        48.59081         1.26224
C         14.76036        47.95025         1.28775
C         16.07958        50.09033         1.25858
C         18.31554        10.42485         0.66117
C         18.29235        11.82171         0.45352
C         17.06254        12.54026         0.28758
C         18.25642        14.65649         0.04126
C         17.03247        13.90055         0.06638
C         18.24876        16.07090        -0.11494
C         16.99615        16.79101        -0.24344
C         18.22818        18.92998        -0.30815
C         16.99802        18.16937        -0.36550
C         18.20953        20.30615        -0.21027
C         16.98797        21.12216        -0.48406
C         18.19988        23.06795         0.60504
C         16.88786        22.30833         0.47567
C         18.06179        24.39915         1.25295
C         16.71527        25.13617         1.22666
C         18.01404        27.33578         1.28680
C         16.85444        26.63734         1.05046
C         18.05091        28.79761         1.25510
C         16.85238        29.49912         1.26692
C         18.16746        31.66332         1.53608
C         16.83953        30.91222         1.65267
C         18.17728        33.12702         1.32211
C         16.96667        33.84081         1.27591
C         18.21994        35.93655         1.05132
C         16.96815        35.25271         1.16742
C         18.24955        37.38023         0.84344
C         17.08058        38.18140         1.25298
C         18.08865        40.24302         0.29144
C         17.02087        39.60786         0.93968
C         18.09073        41.64543         0.03460
C         16.91022        42.42091         0.35667
C         18.03804        44.52853        -0.43328
C         16.87893        43.83714         0.09891
C         18.04029        45.88894        -0.64897
C         16.80069        46.66315        -0.42426
C         18.27838        48.74946        -0.10416
C         16.95681        48.09469         0.07466
C         18.32541        50.17827         0.21502
C         17.17319        50.81911         0.85293
C         18.31242        53.00136         0.73952
C         17.18792        52.25173         1.01460
C         18.33035        54.43657         0.89871
C         20.84582         6.29054         1.80932
C         20.76811         7.55665         1.31733
C         19.49597         8.19836         0.79497
C         20.73666        10.42921         0.57238
C         19.52392         9.72066         0.72551
C         20.75910        11.83523         0.41314
C         19.52036        12.54008         0.35250
C         20.72837        14.66070         0.06351
C         19.49716        13.95455         0.15794
C         20.71606        16.07185        -0.12536
C         19.48467        16.78195        -0.20319
C         20.68703        18.91439        -0.60615
C         19.49800        18.21906        -0.34432
C         20.71616        20.42180        -0.57466
C         19.44707        21.11230        -0.20664
C         20.69936        23.06164         0.97373
C         19.41546        22.45969         0.45426
C         20.63537        24.50915         1.36317
C         19.30406        25.15960         1.55461
C         20.51789        27.37779         1.51889
C         19.23310        26.66153         1.85916
C         20.57396        28.74783         1.20351
C         19.31987        29.49623         1.19863
C         20.57060        31.59908         0.88409
C         19.35847        30.88926         1.16363
C         20.60747        32.98280         0.87234
C         19.40923        33.78530         1.06867
C         20.72118        35.94999         0.80756
C         19.41379        35.19812         0.92215
C         20.61613        37.32502         0.15097
C         19.34590        38.00610         0.27208
C         20.45737        40.11708        -0.70001
C         19.22650        39.41558        -0.17395
C         20.45709        41.59114        -0.65444
C         19.27761        42.29021        -0.47394
C         20.55504        44.46555        -0.66004
C         19.24253        43.73968        -0.93570
C         20.56308        45.91216        -0.67161
C         19.28248        46.61968        -1.11644
C         20.53446        48.83235        -1.08606
C         19.30177        48.09230        -0.72690
C         20.49218        50.36324        -1.06540
C         19.41277        50.93624        -0.16071
C         20.67402        53.04640         0.06587
C         19.49684        52.34060         0.19460
C         20.80691        54.40640         0.69334
C         19.50042        55.15997         0.79616
C         20.76739        57.28130         0.91433
C         19.56011        56.58227         0.92055
C         20.81511        58.70681         1.08719
C         23.43657         3.54798         2.19309
C         22.19279         4.19995         2.16567
C         23.33651         6.31205         1.88391
C         22.12848         5.59723         1.97715
C         23.26768         7.75678         1.62877
C         22.02538         8.25585         0.96630
C         23.29434        10.43521         0.51871
C         22.01299         9.69457         0.56894
C         23.27289        11.85103         0.19219
C         22.00572        12.55996         0.27689
C         23.22764        14.71994         0.14158
C         21.97006        13.95325         0.14103
C         23.21158        16.12231        -0.31050
C         21.94742        16.77199        -0.35921
C         23.08023        18.67403        -1.27745
C         21.88910        18.13570        -0.74274
C         23.09650        20.79828        -0.98726
C         21.98431        21.16780        -0.28810
C         23.35334        23.10102         0.50954
C         22.04618        22.36179         0.60322
C         23.62082        24.25609         1.22935
C         21.67946        25.23346         1.88908
C         22.91118        27.42671         1.82029
C         21.70567        26.69225         1.82048
C         23.05470        28.70949         1.24339
C         21.82583        29.39003         0.98870
C         23.06385        31.56350         0.86293
C         21.80407        30.81434         0.47553
C         23.13865        32.92301         0.57904
C         21.84898        33.64201         0.38263
C         23.11244        35.89287         0.06191
C         21.84026        35.13247         0.18958
C         23.05495        37.24291        -0.15851
C         21.77628        37.95514        -0.26422
C         23.01486        40.16869        -0.67597
C         21.76085        39.33945        -0.93742
C         22.99083        41.52867        -0.68690
C         21.73125        42.30982        -1.04546
C         22.98564        44.45981        -0.12277
C         21.73000        43.75727        -0.59271
C         23.02348        45.92893        -0.47537
C         21.78379        46.60592        -0.65953
C         23.11562        48.76042        -0.87122
C         21.82392        48.05446        -0.99072
C         23.11093        50.23201        -0.72276
C         21.82586        50.98808        -0.67633
C         23.16348        53.10671        -0.33350
C         21.82964        52.51461        -0.75715
C         23.19059        54.42252         0.03968
C         21.91384        55.23403         0.00957
C         23.23755        57.20792         0.89077
C         22.02045        56.58426         0.67316
C         23.28190        58.59230         1.48499
C         22.01764        59.38285         1.22813
C         23.32708        61.45394         1.31440
C         22.09469        60.80015         1.29391
C         24.62686         4.24665         2.04537
C         25.80741         6.41484         1.76885
C         24.61901         5.67052         1.90632
C         25.84291         7.91302         1.97803
C         24.51939         8.57342         1.58241
C         25.73714        10.24218         0.05347
C         24.48878         9.81204         0.77848
C         25.70780        11.71999        -0.36999
C         24.47044        12.49780        -0.07912
C         25.73276        14.67983        -0.44254
C         24.54254        13.95861         0.04235
C         25.69327        16.08537        -0.68323
C         24.41812        16.79511        -0.62187
C         25.56221        18.98344        -1.36252
C         24.34860        18.14661        -1.07417
C         25.60763        20.44790        -1.01121
C         24.44769        21.21672        -0.72228
C         25.73759        23.19644        -0.24944
C         24.50776        22.53230        -0.18926
C         25.73391        24.69389        -0.08529
C         24.69600        25.14779         0.90265
C         25.87936        27.36165         0.97702
C         24.84695        26.42441         1.40413
C         25.74690        28.81785         1.08564
C         24.38361        29.40184         1.19660
C         25.99279        31.92511         0.89129
C         24.18931        30.79086         1.30114
C         25.73484        33.03239         0.15143
C         24.35303        33.64658        -0.03284
C         25.53472        35.80450        -0.66834
C         24.43698        35.17289         0.24383
C         25.59370        37.29018        -0.40170
C         24.32624        38.05774        -0.05404
C         25.56798        40.13144        -0.49628
C         24.30593        39.37199        -0.84920
C         25.58687        41.59777        -0.65263
C         24.25373        42.32913        -0.75326
C         25.48692        44.46261        -0.38920
C         24.27487        43.76491        -0.46789
C         25.51010        45.91332        -0.45350
C         24.26660        46.60516        -0.57840
C         25.57029        48.73091        -1.06508
C         24.28170        48.04747        -0.77180
C         25.59037        50.24450        -1.24813
C         24.37217        50.99580        -0.84377
C         25.64937        53.11556        -0.61912
C         24.38322        52.33860        -0.55422
C         25.73783        54.37461         0.17144
C         24.43975        55.07034         0.48386
C         25.72191        57.19723         0.72440
C         24.47503        56.51870         0.70504
C         25.72341        58.61863         0.89232
C         24.55478        59.33708         1.14060
C         24.53554        60.74808         1.20228
C         27.05394         8.63848         1.44264
C         28.20784        10.58576         0.52162
C         27.01569         9.81916         0.74689
C         28.27652        11.82085        -0.12958
C         26.99528        12.45942        -0.61591
C         27.97197        14.65919        -1.28579
C         26.89677        13.95273        -0.73883
C         28.09542        16.06886        -1.22850
C         26.87156        16.77591        -1.05422
C         28.13964        18.95316        -1.13823
C         26.86847        18.23564        -1.32762
C         28.13195        20.34070        -0.92748
C         26.87447        21.06801        -0.82447
C         28.18045        23.16147        -0.53300
C         26.92703        22.47690        -0.54720
C         28.19020        24.62365        -0.35905
C         27.06257        25.20688         0.45371
C         28.28304        27.40763         0.47719
C         27.04168        26.71741         0.54501
C         28.24031        28.85283         0.61107
C         26.98139        29.55823         0.84018
C         28.24322        31.64533         0.21644
C         27.09591        31.00653         0.67858
C         28.19790        33.02075        -0.26905
C         26.86717        33.61577        -0.68886
C         28.05306        35.81725        -0.71034
C         26.89885        35.13375        -0.53121
C         28.02292        37.30220        -1.01170
C         26.76009        37.97574        -0.50189
C         27.97187        40.13038         0.03249
C         26.72729        39.43194        -0.34273
C         27.97442        41.62425         0.16671
C         26.75438        42.37217        -0.20695
C         27.90381        44.56191         0.35965
C         26.73472        43.74120        -0.17965
C         28.06643        45.81278        -0.50130
C         26.77046        46.62279        -0.54812
C         28.12552        48.67977        -1.02211
C         26.82315        47.97854        -0.83774
C         28.18629        50.18875        -1.11535
C         26.91930        50.97231        -1.27108
C         28.20014        53.08300        -0.50178
C         26.94060        52.44006        -0.95285
C         28.19806        54.42893        -0.14297
C         26.99199        55.15640         0.11164
C         26.94769        56.50426         0.44590
C         29.53076        12.50759        -0.08839
C         30.75957        14.69109        -0.60497
C         29.81592        13.67801        -0.81885
C         30.61235        16.03802        -1.08027
C         29.38692        16.70784        -1.32112
C         30.62405        18.84004        -0.87124
C         29.41009        18.22197        -1.53112
C         30.61409        20.30459        -0.54711
C         29.36856        21.05933        -0.75982
C         30.68124        23.16757        -0.52410
C         29.40534        22.46589        -0.64858
C         30.73205        24.54882        -0.29112
C         29.49370        25.34739        -0.27254
C         30.76793        27.35648         0.66488
C         29.47557        26.69904         0.30125
C         30.72930        28.80645         0.27011
C         29.46501        29.50688         0.32115
C         30.65444        31.62168        -0.11587
C         29.48503        30.92980         0.11158
C         30.62413        33.11748         0.07632
C         29.35286        33.72371        -0.44692
C         30.66026        35.92039        -1.09233
C         29.31584        35.06800        -1.14676
C         30.49482        37.32662        -0.54055
C         29.30926        37.98548        -0.57711
C         30.51402        40.25061        -0.19877
C         29.25925        39.45992        -0.35052
C         30.43619        41.55790         0.60268
C         29.28838        42.39244         0.00990
C         30.41295        44.51532         0.59618
C         29.23538        43.82588         0.47407
C         30.44280        45.96779         0.37953
C         29.30432        46.59716        -0.08997
C         30.56929        48.78307        -0.20286
C         29.38418        47.98175        -0.57692
C         30.55606        50.16214        -0.25660
C         29.38925        50.90814        -0.60033
C         29.37822        52.28384        -0.41454
C         31.87006        16.79490        -1.16514
C         33.15492        18.97679        -1.33153
C         31.91250        18.14585        -1.12618
C         33.15830        20.19287        -0.36091
C         31.90240        21.02933        -0.51266
C         33.20419        23.17261        -0.77090
C         31.91770        22.39490        -0.56670
C         33.22409        24.43129         0.10707
C         31.96219        25.24583        -0.03450
C         33.22872        27.35028         0.10949
C         31.99539        26.61642         0.19139
C         33.20073        28.75329         0.01378
C         31.92894        29.44758         0.00115
C         33.16539        31.61793        -0.13009
C         31.90167        30.87907        -0.47672
C         33.14869        33.10729        -0.15799
C         31.87126        33.82867        -0.35339
C         33.13823        35.90857        -0.38769
C         31.87575        35.18142        -0.53547
C         33.08004        37.34531        -0.06294
C         31.75932        38.04196        -0.15520
C         33.10592        40.24954        -0.15058
C         31.81884        39.52689        -0.33175
C         33.07969        41.64563         0.38856
C         31.76717        42.30625         0.71072
C         33.02219        44.53525         0.79235
C         31.70690        43.80635         0.85015
C         33.06048        46.03503         0.55712
C         31.70591        46.69808         0.41832
C         31.73281        48.05353         0.19535
C         34.42433        20.99627        -0.44228
C         35.68072        23.08867        -0.37915
C         34.46227        22.36869        -0.51828
C         35.71736        24.50616        -0.24821
C         34.48606        25.22954        -0.10439
C         35.71768        27.34288        -0.08064
C         34.47902        26.62291        -0.04279
C         35.72480        28.76499        -0.07963
C         34.45072        29.49055        -0.16281
C         35.65263        31.65238        -0.48247
C         34.42445        30.86505        -0.34472
C         35.64288        33.10828        -0.29187
C         34.37939        33.80845        -0.68668
C         35.59977        35.97096        -0.10732
C         34.35538        35.27135        -0.35499
C         35.59182        37.39301         0.01339
C         34.36216        38.10631        -0.03953
C         35.59866        40.22952         0.07041
C         34.37606        39.49980         0.01587
C         35.59199        41.73327        -0.17859
C         34.31162        42.45617         0.22865
C         34.26703        43.79120         0.44571
C         36.93766        25.21785        -0.21537
C         38.18620        27.35459        -0.06531
C         36.95938        26.62864        -0.10978
C         38.21693        28.74553         0.05862
C         36.95551        29.44307         0.05451
C         37.91123        31.75310         0.55764
C         36.94489        30.90837        -0.10091
C         38.01301        33.11412         0.34140
C         36.81094        33.81403        -0.05500
C         38.04122        35.95490         0.27806
C         36.81054        35.26334         0.01890
C         38.03048        37.36022         0.31734
C         36.82471        38.10097         0.17944
C         36.79522        39.52957         0.18145
C         39.50839        29.45936        -0.03568
C         40.75235        31.70828         0.33389
C         39.74190        30.67866         0.54694
C         40.53317        33.05864         0.45944
C         39.27465        33.80830         0.51785
C         39.26213        35.19472         0.44851
O         38.75655        31.11839         1.46995
O         21.50857        52.96388        -2.06907
O         32.57491        41.68763         1.76954
O         25.20430        35.65291        -2.04293
O         21.41962        22.18584         1.90973
O         30.44342        19.25024         0.50788
O         13.36918        27.37953        -1.91932
O         22.07621         8.58835        -0.45985
O         22.95448        19.85487        -2.00886
O          9.57965        33.35960         0.82783
O         25.17334        54.28030         1.51057
O         32.25966        37.62151         1.15914
O         13.13969        31.14045         2.04904
O         33.20976        32.38676         1.13022
O         17.64749        31.21222         2.83650
O         27.74317        50.66509        -2.43031
O         24.05165        14.47287         1.33599
O         15.31986        40.07746         2.65997
O         28.65854        25.33882        -1.53496
O         24.01632        26.84308         2.44400
O         26.26472        11.83816        -1.73669
O         29.00555        48.05179        -2.02325
O         22.83772        24.59642         2.33341
O         23.62164         8.64720         2.76069
O         26.21848        53.24377        -1.95595
O         19.95319        21.14165        -1.63238
O         25.14611        31.55348         1.95129
O         22.36923        50.52163         0.58163
O         27.84600        40.76931         1.34649
O         15.32410        33.22856        -0.34477
O         25.04744        41.99948        -1.96049
O         36.62951        31.25221        -1.49637
O         21.55319        34.27006        -0.94047
O         21.17219        48.33426        -2.30618
O         16.39731        47.83780        -1.24075
O         28.96385        13.91811        -1.92127
O         32.39327        44.23833         2.07804
O         29.83344        40.20528        -1.48553
O         26.21616        18.61070        -2.62497
O         32.55761        40.03957        -1.49886
O         16.56875        37.78635         2.55649
O         18.60331        24.39538         2.62880
O         19.42390        39.59000        -1.62541
O         25.45630        49.37386        -2.40096
O         10.35938        36.76835         1.65144
O         19.06435        43.67577        -2.37638
H         19.18016        44.59434        -2.72765
O         15.23015        14.07399        -1.51128
H         15.82843        14.41990        -2.20506
O         25.98882         8.02027         3.43361
H         25.07437         8.13960         3.79187
O         21.54661        55.50751        -1.35462
H         21.49971        54.62022        -1.83911
O         31.09382        36.16632        -2.45736
H         30.61730        35.50525        -3.02178
O         21.79968        39.08349        -2.36777
H         20.89448        38.79245        -2.62724
O         33.23775        23.57830        -2.15991
H         32.40089        24.04732        -2.36261
O         27.93934        37.37492        -2.47487
H         27.00793        37.15096        -2.70951
O         22.90228        44.40557         1.36699
H         23.66595        44.91315         1.71802
O         16.62894        21.78074         1.79977
H         16.48341        22.54349         2.40189
O         21.75221        42.35674        -2.50578
H         21.69858        41.43037        -2.83213
O         23.33022        58.40459         2.94372
H         23.37611        59.29582         3.35022
O         21.17160        36.18012         2.18487
H         20.47023        36.68303         2.65122
O         33.19703        19.42323        -2.69038
H         32.28321        19.54572        -3.02061
O         30.59917        33.29299         1.54440
H         31.47784        32.97928         1.87036
O         28.33128        45.34807        -1.85330
H         28.51013        46.15334        -2.39938
O         26.65637        33.37191        -2.09295
H         26.10333        34.13219        -2.42621
O         15.37762        46.04895         2.61098
H         16.15551        46.64450         2.77044
O         33.14681        19.59648         0.96520
H         32.93078        20.29752         1.61503
O         33.23905        23.94988         1.48646
H         33.15058        24.72805         2.07707
O         16.12289        24.93879         2.54730
H         16.87395        24.97678         3.18850
O         12.73277        40.38387         2.96921
H         13.54416        40.53303         3.50672
O         30.09576        41.24244         1.96331
H         30.93681        41.11028         2.45898
O         19.07855        26.80440         3.30603
H         19.64028        26.12693         3.73939
O         34.25664        33.67420        -2.13984
H         35.05709        34.06439        -2.54917
O         24.41858        38.41880         1.35286
H         24.61752        37.59132         1.84807
O         21.81125        30.72885        -0.97949
H         22.04226        31.61525        -1.33759
O         24.01345        33.45600        -1.42522
H         24.24088        34.30407        -1.92070
O          9.46711        33.86535        -2.83489
H          9.01156        33.36805        -3.55926
O         25.69471         9.43545        -1.16155
H         26.03123        10.01118        -1.89065
O         30.87474        27.31215         2.14155
H         30.14124        27.85627         2.50099
O          8.11558        31.64724        -3.90322
H          8.81821        30.99716        -4.12330
O         35.79350        41.92896        -1.59358
H         35.09142        41.44098        -2.07328
O         27.28186        24.67374         1.78691
H         26.54201        24.96349         2.36378
O         14.53207        46.20689        -0.92982
H         14.74606        47.07050        -1.37612
O         29.07301        34.77617        -2.55309
H         28.56725        35.54587        -2.91335
O          9.34281        25.05704        -3.00999
H         10.04179        25.31192        -3.64672
O         33.83093        46.32934        -0.62060
H         33.30264        46.09901        -1.41225
O         21.27763        54.18618         2.05769
H         20.63581        53.59958         2.51010
O         27.53935        45.01004         1.69069
H         27.60734        44.24363         2.29856
O         19.25509        46.52252        -2.57429
H         19.96843        47.13206        -2.90378
O         25.47302        25.29828        -1.37495
H         26.26183        25.16264        -1.94338
O         24.39692        39.04639        -2.24964
H         24.43783        39.89164        -2.74799
O         29.57575        18.47168        -2.96632
H         28.74758        18.19367        -3.41491
O         29.54570        42.59343        -1.40397
H         28.96974        43.32278        -1.73446
O         20.14629        50.77092        -2.39834
H         20.52603        51.69195        -2.54034
O         15.18005        28.60670         2.66955
H         15.85824        28.02425         3.07669
O         19.32701         7.71283        -0.55322
H         20.15996         7.92952        -1.03328
O         14.58262        18.50488         1.33142
H         13.78156        18.14387         1.76467
O         15.58812        18.71511        -2.19110
H         16.18103        19.37339        -2.61348
O         24.86345        35.39680         1.61244
H         24.20225        34.99783         2.21705
O         15.26338        32.02468         3.08565
H         15.05472        31.18884         3.55406
O         17.14730        21.63767        -1.84474
H         18.09948        21.58168        -2.09389
O         16.91495        48.16805         2.42752
H         16.76901        48.82531         3.14083
O         31.92490        30.80419        -1.94688
H         31.06589        30.43703        -2.24568
H          5.45298        31.51498        -2.57923
H          5.29419        33.85962        -1.90376
H          7.81595        27.17599        -2.29621
H          6.73716        29.34856        -2.74039
H          6.43617        36.03526        -1.34465
H          7.66718        38.20500        -0.96137
H         10.07304        22.79884        -1.61977
H          8.96157        25.10640        -0.99404
H          8.84923        40.34836        -0.35088
H          9.93226        42.37464         0.49770
H         12.29256        18.39152        -0.71046
H         11.15241        20.61552        -1.22043
H         11.09671        44.47166         1.02812
H         12.32640        46.56653         1.45020
H         14.94668        14.20306         0.51967
H         13.58877        16.16341        -0.21848
H         14.00035        48.39494         0.63002
H         15.21388        50.59580         1.70916
H         17.36438         9.87806         0.74237
H         16.11842        11.97544         0.30201
H         16.28579        52.74000         1.41254
H         17.37662        54.95348         1.08851
H         19.92628         5.71621         2.00087
H         18.60764         7.85825         1.38413
H         18.62124        57.13725         1.07477
H         19.87102        59.27393         1.06196
H         23.46439         2.45659         2.32113
H         21.26536         3.61765         2.25919
H         23.35162        62.55229         1.34146
H         21.16585        61.38895         1.26342
H         25.58765         3.71290         2.05736
H         26.76681         5.87480         1.78748
H         26.67328        59.16242         0.76926
H         25.47891        61.30372         1.09400
H         28.02135         8.29392         1.84283
H         29.14321        10.18160         0.94107
H         29.15964        54.92804         0.05273
H         27.88031        57.08854         0.44279
H         30.29375        12.12040         0.60453
H         31.65152        14.47214         0.00191
H         31.45404        50.71689         0.05429
H         30.30359        52.76891        -0.06755
H         32.80049        16.21687        -1.27623
H         34.07283        18.36546        -1.14191
H         33.61365        46.50378         1.41324
H         32.68898        48.59240         0.26809
H         35.36120        20.44681        -0.25481
H         36.62802        22.52795        -0.34726
H         36.46422        42.20979         0.33502
H         35.17817        44.39521         0.31395
H         37.88733        24.66660        -0.28412
H         39.13084        26.79460        -0.12934
H         38.97405        37.90331         0.47804
H         37.74580        40.08123         0.23755
H         40.27903        29.00645        -0.67770
H         41.77254        31.38104         0.07615
H         41.42477        33.69839         0.34286
H         40.21027        35.75073         0.51699
