         228
 CSIRO Nanostructure Databank - Neutral Graphene Oxide Data Set
C        -10.99617         0.70537         1.10388
C         -9.72111         1.49723         1.23535
C         -8.52077         0.73722         0.73573
C         -7.37163         1.44522         0.31677
C         -6.13813         0.71307         0.10202
C         -4.93794         1.37603        -0.21139
C         -3.71136         0.68636        -0.30968
C         -2.45324         1.39630        -0.44721
C         -1.29888         0.68000        -0.80125
C         -0.03806         1.44983        -1.01152
C          1.30934         0.81663        -0.81545
C          2.36656         1.52052        -0.10976
C          3.50147         0.74780         0.56177
C          4.82253         1.46222         0.15951
C          6.10826         0.73932         0.46457
C          7.28153         1.45414         0.42599
C          8.57837         0.75850         0.20337
C          9.84590         1.50001         0.51157
C         11.03819         0.67531         0.81737
C         -9.77888         2.91777         0.74824
C         -8.64087         3.59265         0.33651
C         -7.43030         2.84579         0.07179
C         -6.22199         3.55819        -0.36250
C         -4.87921         2.85277        -0.48344
C         -3.72824         3.39223         0.51102
C         -2.43525         2.82336        -0.10471
C         -1.29735         3.57845        -0.21351
C         -0.07932         2.93665        -0.75580
C          1.24051         3.65119        -0.63048
C          2.40954         2.88838        -0.12189
C          3.53065         3.61279         0.55539
C          4.83324         2.87897         0.70613
C          6.12145         3.59858         0.78252
C          7.30220         2.91678         0.58401
C          8.57461         3.62653         0.78839
C          9.75209         2.92465         0.90651
C         -8.66592         5.04340         0.17843
C         -7.51320         5.78130         0.05555
C         -6.23261         5.04460        -0.12007
C         -4.99744         5.71864         0.35933
C         -3.72349         4.94969         0.62479
C         -2.44362         5.73551         0.66123
C         -1.17733         4.96754         0.36842
C          0.09260         5.77000         0.24451
C          1.24628         5.12168        -0.45888
C          2.54513         5.79346        -0.26993
C          3.46792         5.12113         0.70203
C          4.80799         5.81066         0.90012
C          6.09746         5.05292         1.03421
C          7.37394         5.80356         0.93579
C          8.54161         5.08110         0.91311
C         -7.43236         7.18514        -0.29368
C         -6.21770         7.82029        -0.48957
C         -4.97300         7.21234         0.04443
C         -3.67500         7.84625        -0.18121
C         -2.44951         7.23749         0.39333
C         -1.13723         8.00564         0.27322
C          0.20793         7.29412         0.63890
C          1.48991         7.99974         0.08736
C          2.56620         7.12198        -0.55491
C          3.63258         7.95909         0.07371
C          4.94349         7.17311         0.24520
C          6.13220         7.94859         0.75086
C          7.29377         7.26064         1.00805
C         -6.07887         9.12306        -1.09297
C         -4.85740         9.71101        -1.25858
C         -3.61683         9.09681        -0.81214
C         -2.37092         9.74667        -1.02634
C         -1.13702         9.22496        -0.58283
C          0.06922         9.86245        -0.91464
C          1.35402         9.34707        -0.56944
C          2.53674        10.02754        -0.77838
C          3.86786         9.32727        -0.58940
C          4.94676        10.05224         0.19182
C          5.99355         9.39956         0.75700
C        -10.97808        -0.64575         1.12586
C         -9.73197        -1.39553         1.11797
C         -8.51346        -0.68137         0.84685
C         -7.32389        -1.42291         0.63478
C         -6.13273        -0.71032         0.24415
C         -4.95479        -1.41418        -0.06999
C         -3.73479        -0.73994        -0.30111
C         -2.54044        -1.46831        -0.58679
C         -1.36278        -0.76459        -0.96769
C         -0.33166        -1.55910        -1.54488
C          1.59372        -0.42396        -1.32676
C          2.66491        -1.26734        -0.86112
C          3.55784        -0.73399         0.17814
C          4.84027        -1.50500         0.38093
C          6.09608        -0.73467         0.66880
C          7.38398        -1.47754         0.54905
C          8.58868        -0.75826        -0.01151
C          9.85520        -1.47150         0.42943
C         11.02944        -0.68137         0.75946
C         -9.70298        -2.78518         1.25132
C         -8.49862        -3.53806         1.23862
C         -7.27065        -2.83413         0.92568
C         -6.03266        -3.49572         0.70059
C         -5.05560        -2.89192        -0.26229
C         -3.73440        -3.58905        -0.24237
C         -2.56348        -2.91299        -0.52808
C         -1.34279        -3.65704        -0.78328
C         -0.25653        -2.97236        -1.38981
C          0.94081        -3.71252        -1.62560
C          2.81211        -2.59308        -1.23607
C          3.79029        -3.49880        -0.68632
C          4.93639        -2.88200        -0.14827
C          6.16409        -3.59236         0.06638
C          7.36600        -2.94303         0.30595
C          8.63373        -3.63921         0.24971
C          9.85037        -2.84193         0.43386
C         -8.60563        -4.98779         1.25179
C         -7.57039        -5.83359         1.60337
C         -5.70850        -4.76968         1.24073
C         -4.78935        -5.64869         0.72322
C         -3.76169        -5.09382        -0.24105
C         -2.40698        -5.67897         0.17204
C         -1.24242        -5.03895        -0.54011
C         -0.03327        -5.73899        -0.74817
C          1.13764        -5.02385        -1.18331
C          2.46388        -5.64686        -1.04130
C          3.64437        -4.95621        -0.77140
C          4.80327        -5.73333        -0.21469
C          6.10180        -5.05238         0.11795
C          7.43721        -5.81679         0.08660
C          8.66143        -5.00335         0.00480
C         -7.34255        -7.22893         1.29872
C         -6.09623        -7.81862         1.14633
C         -4.74078        -7.08801         1.23378
C         -3.62381        -7.87546         0.56257
C         -2.50318        -7.16487        -0.04523
C         -1.24265        -7.92518        -0.41654
C          0.02575        -7.17776        -0.56505
C          1.20187        -7.87449        -0.73021
C          2.44049        -7.16043        -1.24817
C          3.68722        -7.91807        -0.90006
C          4.87222        -7.22298        -0.38796
C          6.18700        -7.91234        -0.44508
C          7.37369        -7.23812        -0.31626
C         -6.03550        -9.25659         0.98512
C         -4.87756        -9.94948         0.77709
C         -3.62458        -9.26994         0.49517
C         -2.43652       -10.00051         0.16213
C         -1.21827        -9.37423        -0.15766
C          0.02084       -10.03223        -0.33353
C          1.21238        -9.32875        -0.65902
C          2.43103       -10.01324        -0.87065
C          3.67232        -9.31119        -0.90326
C          4.95040       -10.00742        -0.83529
C          6.13087        -9.34353        -0.69458
O          8.46806        -0.96844        -1.44724
H          9.04014        -0.28542        -1.87080
O          2.00768        -3.07902        -2.27801
O          3.27701         0.80879         1.96896
H          3.52545        -0.06304         2.35780
O         -4.07127        -5.50809        -1.59043
H         -4.78551        -4.90675        -1.91517
O         -9.51980         1.64021         2.70364
H         -8.64207         2.05957         2.83710
O          6.88344        -1.11331         1.86610
O          4.76910         1.53556        -1.29860
H          5.60865         1.92592        -1.62289
O          2.32459        -7.29279        -2.71982
H          1.43599        -6.96401        -2.97701
O         -1.95541         8.10123         1.47347
O         -5.60337        -3.13801        -1.64671
H         -5.23388        -2.44253        -2.23325
O          0.69152        -0.96037        -2.26704
O         -6.29824         4.51563        -1.49759
O          9.34974         1.36666        -0.89803
O         -4.41904        -7.02967         2.65476
H         -5.07792        -6.42100         3.06375
O         -2.25714        -5.39565         1.58242
H         -1.40693        -5.76710         1.89622
O          2.58582         8.23001         1.14334
O         -2.23518        -7.54932        -1.43306
O          0.35314         7.37155         2.04788
H         -0.05562         6.56994         2.44830
O          6.70115        -5.56267         1.33787
O          5.27742         6.79135        -1.13183
H          5.28876         7.62553        -1.66962
O         -3.11290         5.35838         1.88492
O         -3.98131         2.84208         1.73231
O          2.72720         5.34421         1.93720
H          3.26430         4.93798         2.65626
O         -4.36295         3.02026        -1.81143
H         -4.92065         3.69974        -2.26341
O         -5.24253         6.67770         1.40249
O          4.39954         9.15076        -1.94805
H          3.66010         8.84625        -2.51670
O         -0.18866         2.39505        -2.12177
O          3.95725         3.07544         1.84938
O         -0.19923         4.98424         1.45444
O          5.33604         5.57361         2.21682
O         -6.51272        -5.22438         2.31074
O          4.44196        -6.60763         0.90806
O          3.74464        -1.54301         1.38073
O          1.26176         4.57632        -1.81604
H         11.94710        -1.23245         1.01878
H         11.95719         1.19807         1.12289
H         10.68498         3.45706         1.14665
H          9.50877         5.60708         0.93391
H          8.21628         7.81545         1.24325
H          6.78664         9.98442         1.24987
H          4.90750        11.15129         0.23832
H          2.53087        11.02111        -1.25355
H          0.02235        10.80907        -1.47527
H         -2.36596        10.69588        -1.58340
H         -4.79208        10.69868        -1.73835
H         -6.98626         9.63580        -1.44475
H         -8.36597         7.71752        -0.53208
H         -9.64250         5.54835         0.22518
H        -10.69487         3.49134         0.95991
H        -11.95211         1.25032         1.10965
H        -11.92102        -1.21407         1.12128
H        -10.65219        -3.32146         1.40428
H         -9.55044        -5.42045         0.88674
H         -8.22768        -7.86701         1.13563
H         -6.98080        -9.81317         1.08341
H         -4.90265       -11.04768         0.71915
H         -2.46646       -11.09789         0.24171
H          0.06777       -11.12683        -0.22816
H          2.44062       -11.11292        -0.84143
H          4.94802       -11.10217        -0.94264
H          7.07900        -9.90151        -0.69624
H          8.32086        -7.78610        -0.44004
H          9.61983        -5.50804        -0.19131
H         10.78646        -3.38524         0.63948
