         404
 CSIRO Nanostructure Databank - Neutral Graphene Oxide Data Set
C          1.79081         2.10972         3.07901
C          1.73416         3.54002         2.93346
C          2.82395         1.37914         2.56304
C          2.63922         4.21442         2.16595
C          1.34484         6.35618         1.66383
C          1.30635         7.67065         1.35806
C          2.63765         5.73017         2.13074
C          2.51646         8.48509         1.27658
C          1.22988        10.62635         1.17432
C          1.14974        11.94028         0.87900
C          2.47214         9.87750         1.07274
C          2.30050        12.70016         0.27094
C          1.09104        15.00095         0.62347
C          1.15696        16.35863         0.69675
C          2.31225        14.18262         0.66005
C          2.40304        17.08638         0.57316
C          2.42626        18.53564         0.64568
C          3.88219         2.01908         1.82373
C          3.70383         3.44900         1.49009
C          5.03753         1.35660         1.46364
C          4.93489         4.20241         0.98563
C          3.81977         6.37339         1.43244
C          3.77609         7.80093         1.25916
C          4.97335         5.67405         1.11910
C          4.97327         8.51164         0.99757
C          3.68104        10.61517         0.82461
C          3.63555        12.01231         0.53457
C          4.93668         9.93172         0.82750
C          4.83388        12.71608         0.35595
C          3.61002        14.93947         0.41919
C          3.56809        16.40039         0.26817
C          4.80349        14.15692        -0.02591
C          4.78158        17.15954        -0.09588
C          3.58466        19.24918         0.53270
C          4.84066        18.60207         0.23204
C          6.20136         2.04335         0.95572
C          6.18439         3.45926         0.82117
C          7.40925         1.35894         0.73146
C          7.37086         4.16759         0.48755
C          6.21558         6.35610         0.86822
C          6.22152         7.80424         0.89866
C          7.37239         5.61578         0.56977
C          7.41087         8.52811         0.70792
C          6.14990        10.66192         0.64476
C          6.08766        12.05993         0.45421
C          7.41235         9.95260         0.58342
C          7.33446        12.84497         0.45019
C          6.08315        14.91585        -0.25834
C          6.08445        16.42055        -0.29764
C          7.36195        14.24808         0.02709
C          7.35009        17.13360        -0.01840
C          6.04155        19.26730         0.14200
C          7.31859        18.58820         0.01890
C          8.58571         2.03561         0.29547
C          8.54552         3.46412         0.14958
C          9.77936         1.30394         0.10442
C          9.65313         4.21787        -0.56027
C          8.67641         6.28281         0.56205
C          8.69542         7.82379         0.67640
C          9.84486         5.62686        -0.03828
C          9.88371         8.52059         0.18430
C          8.62894        10.63226         0.35808
C          8.67251        12.09481         0.43032
C          9.85193         9.93497         0.08923
C          9.85689        12.82167        -0.05558
C          8.55358        14.95947         0.01432
C          8.53442        16.41622         0.04578
C          9.82549        14.26122        -0.06302
C          9.81079        17.11177         0.26387
C          8.49909        19.31113        -0.05136
C          9.80146        18.67543         0.14588
C         11.00803         1.91246        -0.39843
C         10.96234         3.43291        -0.69062
C         12.32000         1.29477        -0.22082
C         12.24929         4.14524        -0.64163
C         11.00272         6.33110        -0.28517
C         11.05030         7.79108        -0.14707
C         12.23577         5.61331        -0.62613
C         12.21926         8.52134        -0.45703
C         11.04613        10.65886        -0.22087
C         11.00839        12.09098        -0.35784
C         12.25217         9.93481        -0.45249
C         12.22419        12.79679        -0.79100
C         11.01175        15.00031        -0.23934
C         11.06119        16.41246        -0.05553
C         12.24351        14.32566        -0.66164
C         12.26735        17.12783        -0.17995
C         11.05480        19.29038        -0.26841
C         12.25627        18.57432        -0.28745
C         13.49103         1.97342        -0.56486
C         13.42236         3.41276        -0.75608
C         14.77228         1.31135        -0.56388
C         14.68959         4.13261        -0.99694
C         13.40441         6.31499        -0.77729
C         13.42798         7.80560        -0.99240
C         14.68604         5.58544        -0.67926
C         14.71726         8.46090        -0.47817
C         13.51572        10.64812        -0.64407
C         13.51325        12.09124        -0.70889
C         14.72639         9.95120        -0.71853
C         14.69334        12.82038        -0.64832
C         13.52922        15.01403        -0.47074
C         13.53021        16.43371        -0.29711
C         14.72187        14.26451        -0.54823
C         14.75877        17.15387        -0.27883
C         13.49116        19.23668        -0.56215
C         14.74227        18.60076        -0.50430
C         16.00709         1.95536        -0.76713
C         16.00189         3.41474        -1.03304
C         17.25705         1.30393        -0.75640
C         17.26505         4.17827        -0.83845
C         15.98045         6.31098        -0.66088
C         15.97149         7.77752        -1.04714
C         17.24091         5.55448        -0.80751
C         17.26107         8.50704        -0.73250
C         15.98771        10.62423        -0.70124
C         15.95491        12.07800        -0.45894
C         17.22453         9.95575        -0.72353
C         17.25483        12.82686        -0.44067
C         15.96826        14.96397        -0.45631
C         15.96807        16.37739        -0.27623
C         17.22500        14.29234        -0.57940
C         17.23651        16.97230        -0.07300
C         15.89430        19.38240        -0.88616
C         17.21518        19.05565        -0.52581
C         18.50323         2.00856        -0.87851
C         18.50863         3.44652        -0.83108
C         19.74168         1.33376        -0.99034
C         19.73999         4.14496        -0.84119
C         18.46056         6.34330        -0.58800
C         18.44138         7.81631        -0.75058
C         19.76146         5.60971        -0.61967
C         19.71359         8.51758        -1.14725
C         18.49193        10.67242        -0.70461
C         18.51228        12.10037        -0.68377
C         19.71607         9.98671        -0.82580
C         19.70429        12.80832        -0.81951
C         18.42391        14.98577        -0.71654
C         18.44782        16.39153        -0.49351
C         19.68188        14.28057        -1.14410
C         19.65962        17.16281        -0.61872
C         18.46731        19.37389        -1.06640
C         19.65997        18.59246        -0.80764
C         20.97320         2.03014        -1.11071
C         20.94744         3.45746        -1.02975
C         22.23281         1.34824        -1.22802
C         22.17847         4.23938        -1.24647
C         21.00922         6.38499        -0.81698
C         20.99891         7.80456        -0.81840
C         22.19660         5.67274        -0.90078
C         22.21322         8.54190        -0.88408
C         20.94947        10.69108        -0.83558
C         20.94925        12.12092        -0.82491
C         22.20066         9.98895        -0.88627
C         22.17985        12.85070        -0.78342
C         20.93689        15.00986        -0.73741
C         20.90201        16.43105        -0.66687
C         22.15666        14.29793        -0.68573
C         22.13793        17.13597        -0.60793
C         20.91261        19.24411        -0.92059
C         22.13982        18.57794        -0.73096
C         23.46509         2.01313        -1.33719
C         23.47750         3.48794        -1.46740
C         24.72009         1.36115        -1.32054
C         24.75123         4.20684        -1.35439
C         23.45505         6.39826        -0.79583
C         23.45492         7.86234        -0.89954
C         24.74673         5.63801        -1.03902
C         24.68780         8.57566        -0.97274
C         23.41948        10.70924        -0.85942
C         23.41307        12.14927        -0.77977
C         24.67365        10.01111        -0.90210
C         24.65307        12.86327        -0.69878
C         23.38733        15.00624        -0.50588
C         23.34700        16.42085        -0.46184
C         24.64800        14.28728        -0.51607
C         24.57245        17.18690        -0.19457
C         23.36900        19.28322        -0.73785
C         24.59843        18.63316        -0.50125
C         25.95316         2.06397        -1.39791
C         25.96531         3.52269        -1.46412
C         27.18862         1.40001        -1.30886
C         27.20380         4.23668        -1.52069
C         25.89894         6.45041        -1.49072
C         25.92065         7.89459        -1.17707
C         27.17593         5.69289        -1.75882
C         27.15195         8.59335        -1.16109
C         25.90056        10.72394        -0.89154
C         25.89749        12.16327        -0.78492
C         27.13971        10.01433        -0.96146
C         27.12883        12.87123        -0.77855
C         25.87701        14.97606        -0.43529
C         25.89139        16.42255        -0.17276
C         27.12916        14.30938        -0.62854
C         27.11978        17.18276        -0.40438
C         25.82767        19.29771        -0.53700
C         27.08070        18.60559        -0.47777
C         28.42089         2.10454        -1.25593
C         28.43484         3.55126        -1.37957
C         29.63990         1.42491        -1.09597
C         29.67317         4.24837        -1.33022
C         28.44210         6.48585        -1.71915
C         28.40576         7.90835        -1.31821
C         29.72493         5.71229        -1.53103
C         29.62027         8.58221        -1.08248
C         28.37427        10.71667        -0.87478
C         28.37244        12.14990        -0.81243
C         29.60832        10.00269        -0.86970
C         29.60357        12.83979        -0.76140
C         28.34346        15.03934        -0.63700
C         28.34561        16.48012        -0.52725
C         29.59432        14.30822        -1.11387
C         29.54981        17.23657        -0.49450
C         28.29531        19.32091        -0.59205
C         29.54316        18.66671        -0.51135
C         30.87043         2.11828        -0.99784
C         30.88487         3.56296        -1.08568
C         32.08352         1.42685        -0.82045
C         32.11625         4.27547        -0.94395
C         30.91272         6.45116        -1.07947
C         30.87694         7.86133        -0.98516
C         32.11323         5.72572        -0.89167
C         32.08197         8.56693        -0.67727
C         30.82896        10.70310        -0.63948
C         30.81962        12.13580        -0.57911
C         32.05826         9.98799        -0.50405
C         32.04139        12.82781        -0.26388
C         30.89924        15.00814        -0.74117
C         30.82407        16.49331        -0.44880
C         32.05269        14.25694        -0.18569
C         31.91082        17.00656         0.35604
C         30.76131        19.45555        -0.55478
C         31.92915        19.04080         0.10693
C         33.31068         2.11513        -0.72612
C         33.33131         3.55432        -0.77867
C         34.52787         1.41211        -0.54433
C         34.58719         4.23064        -0.69311
C         33.31808         6.44261        -0.70354
C         33.31640         7.85236        -0.57858
C         34.59168         5.70981        -0.80400
C         34.53245         8.56221        -0.23234
C         33.25572        10.68200        -0.14718
C         33.22825        12.10245         0.02583
C         34.47513         9.96404         0.04120
C         34.40169        12.78111         0.50280
C         33.18747        14.93840         0.26864
C         33.17113        16.38101         0.43942
C         34.38058        14.22605         0.66442
C         34.30809        17.15356         0.75147
C         33.28826        19.34560        -0.07558
C         34.38318        18.55971         0.42878
C         35.74819         2.08069        -0.41962
C         35.77982         3.51534        -0.53558
C         36.93427         1.33296        -0.07447
C         37.08935         4.20735        -0.44965
C         35.86180         6.47601        -0.52346
C         35.74804         7.86633        -0.04152
C         37.12223         5.70707        -0.26790
C         36.87236         8.51386         0.54046
C         35.64994        10.64463         0.49859
C         35.56288        12.04811         0.79498
C         36.83342         9.90353         0.76521
C         36.68681        12.71041         1.47321
C         35.48466        14.94150         1.10842
C         35.49349        16.43537         1.34211
C         36.67855        14.24432         1.59223
C         36.83300        17.04143         1.00208
C         35.67484        19.13190         0.36021
C         36.87890        18.40083         0.58782
C         38.11721         1.94305         0.26702
C         38.27210         3.40119         0.06142
C         39.26372         1.22256         0.76792
C         39.34355         4.07010         0.82982
C         38.20017         6.34553         0.53983
C         37.95645         7.69424         1.20786
C         39.20773         5.47693         1.21915
C         39.26991         8.41299         1.48211
C         38.09676        10.59631         1.11362
C         38.02531        12.05534         1.44300
C         39.29813         9.81993         1.52611
C         39.15338        12.73523         2.16698
C         37.96337        14.95461         1.64732
C         38.02927        16.31681         1.26438
C         39.16667        14.24459         2.11444
C         39.30966        16.97935         1.11448
C         38.13145        19.01970         0.38608
C         39.33906        18.32964         0.63764
C         40.37431         1.87996         1.21245
C         40.39806         3.32395         1.33365
C         41.54647         4.00189         1.89708
C         40.39281         6.17935         1.88420
C         40.43217         7.67349         1.81374
C         41.59720         5.35360         2.05041
C         41.60848         8.36669         2.13327
C         40.47110        10.50504         1.92356
C         40.44950        11.97290         2.23385
C         41.62288         9.75841         2.20661
C         41.69610        12.75524         2.08750
C         40.51444        14.95006         1.98839
C         40.53488        16.31587         1.39431
C         41.71983        14.09169         1.91909
C         41.74555        16.97981         1.15915
C         40.59026        18.97209         0.42244
C         41.77099        18.29778         0.67086
O         19.14567         5.96224         0.67978
O          5.33482        16.91699        -1.44748
O         16.61626        12.41590         0.82970
O          8.96195         6.96504         1.83200
O          5.30136        14.35534        -1.38122
O         38.42191        11.64871         0.09664
O          9.88390        17.95876         1.43607
O         37.22114         7.51391         2.40308
O         38.28695         6.35114        -0.90638
O         10.86974         2.48670        -1.78037
O         26.29003         6.11538        -2.85849
O         39.25426         5.68015         2.66081
O         15.30996         3.79384        -2.28796
O         35.40883         6.26686        -1.90071
O         31.32091        15.97177        -1.75639
O         17.28554        18.18499         0.59556
O         24.32200         5.90838         0.33665
O         36.40146        13.34377         2.74141
O         22.70143         4.00427        -2.62007
O         15.34650         5.92398         0.61012
O          3.86360         3.75737         0.06645
O         29.29498         6.17893        -2.86926
O         39.60705        12.20296         3.43247
O         31.67255        18.08254         1.16480
O         38.12417         3.75115        -1.36673
O         25.20271        16.82381         1.07466
O          3.19671        14.49519         1.76981
O          8.12487        12.63583         1.67730
O         39.80749        14.87868         3.26813
O         12.08994        13.64978        -1.96850
O         19.66599        14.34073        -2.62227
H         20.48741        13.90942        -2.94165
O         14.69138         8.32699         0.95743
H         15.54700         8.63750         1.31996
O         29.50035        14.33285        -2.57353
H         30.00758        15.12345        -2.87447
O          2.09295        12.70100        -1.17448
H          2.09447        11.77049        -1.48233
O         19.67216         8.45516        -2.63488
H         18.78430         8.76599        -2.91868
O          9.16673         4.41627        -1.92898
H          9.37465         3.58415        -2.41604
O         35.32076        16.61162         2.80196
H         35.95097        16.00561         3.24971
O         15.97582         7.81840        -2.50040
H         15.04193         7.83232        -2.82829
O          2.78168         6.12713         3.54062
H          2.78251         7.10788         3.57165
O         13.35928         8.01252        -2.44895
H         12.56295         7.54767        -2.78396
H          1.00365         1.61151         3.66194
H          0.94608         4.09321         3.46378
H          2.88143         0.29412         2.73305
H          0.42022         5.76063         1.68705
H          0.34427         8.13562         1.09816
H          0.33638        10.10900         1.55258
H          0.18699        12.46064         0.98926
H          0.11384        14.50416         0.53707
H          0.22724        16.94611         0.73326
H          1.48150        19.05605         0.86071
H          5.12881         0.28146         1.68091
H          3.57652        20.34119         0.66483
H          7.44508         0.26768         0.86526
H          6.06167        20.35920         0.27968
H          9.80351         0.24418         0.39879
H          8.46284        20.39977        -0.20811
H         12.37091         0.26256         0.15589
H         11.05101        20.34716        -0.57581
H         14.77620         0.22633        -0.37575
H         13.46076        20.31859        -0.76208
H         17.28632         0.20826        -0.65177
H         15.70966        20.27915        -1.49731
H         19.74848         0.23370        -1.01662
H         18.56847        20.24624        -1.72942
H         22.22948         0.24789        -1.19574
H         20.92634        20.33111        -1.08998
H         24.74894         0.26558        -1.21689
H         23.36211        20.36810        -0.92095
H         27.20520         0.30198        -1.23742
H         25.84208        20.38598        -0.69824
H         29.64046         0.32656        -1.03164
H         28.26545        20.41796        -0.65980
H         32.07533         0.32871        -0.75707
H         30.74892        20.41205        -1.09672
H         34.50302         0.31483        -0.47076
H         33.54286        20.23317        -0.67270
H         36.84159         0.23994         0.01525
H         35.76514        20.17914         0.03473
H         39.22415         0.12342         0.78391
H         38.17001        20.06329         0.04006
H         41.24176         1.31204         1.57917
H         42.44210         3.39754         2.10510
H         42.54777         5.82934         2.33078
H         42.52449         7.81562         2.38552
H         42.54345        10.26222         2.53083
H         42.64228        12.20146         1.99763
H         42.68783        14.57553         1.72334
H         42.70027        16.48597         1.38348
H         40.60390        20.00873         0.05713
H         42.73724        18.79390         0.50641
