         324
 CSIRO Nanostructure Databank - Neutral Graphene Oxide Data Set
C         30.55408        56.98627        -1.42367
C         30.51312        58.41085        -1.51538
C         29.32243        59.09121        -1.87508
C         30.48123        61.21222        -1.71585
C         29.31458        60.47096        -1.98458
C         32.97831        52.68086        -0.49084
C         32.82807        54.13163        -0.40905
C         31.68400        54.79681        -1.15039
C         32.92315        57.04479        -0.84747
C         31.71117        56.31050        -1.09443
C         32.91863        58.46004        -0.95007
C         31.69865        59.15696        -1.26046
C         32.86777        61.40555        -0.98078
C         31.66312        60.57442        -1.35076
C         35.42071        48.50365         0.23003
C         35.35006        49.91952         0.28708
C         34.20375        50.60735        -0.08109
C         35.31920        52.81142         0.28351
C         34.12192        52.04071        -0.04049
C         35.33655        54.17702         0.06048
C         34.10463        54.93502        -0.16158
C         35.35696        57.06268        -0.50437
C         34.15501        56.36565        -0.54746
C         35.37084        58.49419        -0.63746
C         34.13947        59.19464        -0.80636
C         35.35631        61.30689        -0.84406
C         34.15778        60.62204        -0.89973
C         37.90306        44.27074         0.40203
C         37.87092        45.65480         0.59472
C         36.65566        46.39227         0.40790
C         37.92399        48.53346         0.53094
C         36.61144        47.78675         0.44441
C         37.79306        49.94762         1.05060
C         36.50693        50.67836         0.83377
C         37.72873        52.84875         0.90675
C         36.54974        52.14778         0.67217
C         37.81214        54.25368         0.60620
C         36.63381        54.85853        -0.04333
C         37.86951        57.07127        -0.02763
C         36.64192        56.33373        -0.34798
C         37.86821        58.48467        -0.44256
C         36.59163        59.20927        -0.58365
C         37.80160        61.37436        -0.50283
C         36.60415        60.62874        -0.67251
C         40.33202        39.93588         0.83235
C         40.25583        41.37618         1.21484
C         39.10109        42.12809         0.62274
C         40.30175        44.22937         1.01965
C         39.08906        43.51727         0.66117
C         40.27605        45.66010         1.15550
C         39.07736        46.34482         0.98705
C         40.28136        48.54901         1.34564
C         38.96999        47.79697         1.37707
C         40.23309        49.99387         1.41236
C         39.06028        50.69639         1.23263
C         40.20400        52.96172         1.42467
C         38.91906        52.17330         1.57740
C         40.17609        54.33259         1.29249
C         38.96514        55.01550         0.83731
C         40.19892        57.23677         0.70988
C         39.00321        56.43277         0.47202
C         40.21746        58.58772         0.46975
C         39.12411        59.28995        -0.21262
C         40.17763        61.51713         0.11972
C         39.04255        60.77348        -0.17331
C         42.58382        35.98952        -0.78368
C         42.67314        37.25978        -0.27181
C         41.53195        37.80008         0.54562
C         42.78275        40.03217         0.63470
C         41.51302        39.30854         0.63560
C         42.81720        41.41624         1.00417
C         41.56777        42.11223         1.10937
C         42.69801        44.22841         1.73969
C         41.50488        43.51211         1.20255
C         42.72992        45.71570         1.45954
C         41.52063        46.40427         1.36797
C         42.74884        48.57919         1.44432
C         41.49045        47.85257         1.39612
C         42.76738        49.99353         1.55127
C         41.47041        50.73637         1.87642
C         42.73906        52.90587         1.69692
C         41.49071        52.16202         1.26981
C         42.72096        54.41291         1.64345
C         41.40916        55.14124         1.56831
C         42.69537        57.31155         1.01911
C         41.37485        56.67975         1.49520
C         42.68759        58.63781         0.72368
C         41.41395        59.39602         0.81709
C         42.72376        61.54778         0.34583
C         41.42719        60.87703         0.56278
C         44.87747        33.41577        -2.31449
C         43.69844        34.02806        -1.78525
C         44.80633        36.25725        -1.92851
C         43.67622        35.37027        -1.47793
C         44.95120        37.51112        -1.10300
C         43.89483        38.04480        -0.40252
C         45.18568        40.11706         0.19983
C         43.95443        39.40152         0.17141
C         45.30406        41.40930         0.77817
C         44.07993        42.11102         1.15317
C         45.09109        44.29500         1.90005
C         44.00207        43.50265         1.51170
C         45.18340        45.69624         1.67452
C         43.98006        46.41401         1.45535
C         45.19943        48.56554         1.35922
C         43.97245        47.85887         1.38394
C         45.21273        49.96337         1.36655
C         43.99726        50.67805         1.50015
C         45.24352        52.90125         1.24416
C         44.04225        52.16264         1.66607
C         45.08703        54.27551         0.62515
C         44.02347        55.10976         1.33342
C         45.16948        57.17341         0.37997
C         43.98113        56.57183         1.01125
C         45.13361        58.58299        -0.02761
C         43.85011        59.35207         0.14539
C         45.16273        61.46899        -0.01112
C         43.90377        60.83822         0.19621
C         46.04952        34.12134        -2.43642
C         47.30386        36.20905        -2.11942
C         46.10980        35.52239        -2.13514
C         47.41330        37.58779        -1.74020
C         46.14850        38.36305        -1.41491
C         47.69988        40.10635        -0.42077
C         46.37161        39.40521        -0.34121
C         47.69847        41.49975        -0.00636
C         46.63192        42.04324         0.70613
C         47.85928        44.22516         0.91171
C         46.91576        43.32270         1.32114
C         47.85976        45.64868         1.31842
C         46.51409        46.36679         1.60615
C         47.71790        48.53302         0.83637
C         46.45436        47.79659         1.13876
C         47.71943        50.00397         0.84862
C         46.51859        50.73673         1.39593
C         47.60204        52.82971         0.25542
C         46.33695        52.09982         0.76213
C         47.57810        54.30725         0.22025
C         46.40437        55.01480         0.43175
C         47.55668        57.17021        -0.11640
C         46.36973        56.46403         0.27387
C         47.59594        58.58962        -0.22276
C         46.39432        59.32550        -0.13069
C         47.62191        61.44488        -0.28450
C         46.37680        60.75692        -0.15997
C         48.62587        38.24286        -1.77720
C         49.93486        40.32801        -1.47559
C         48.78325        39.59512        -1.30155
C         50.09025        41.65190        -0.90163
C         48.83892        42.32045        -0.44159
C         50.21061        44.42260         0.07567
C         48.88930        43.76319        -0.03711
C         50.26528        45.71445         0.49529
C         49.03760        46.43755         0.83865
C         50.19555        48.57702         0.48101
C         49.01212        47.81461         0.82201
C         50.13541        49.98854         0.33464
C         48.88133        50.69655         0.51589
C         50.07865        52.84806         0.19025
C         48.87517        52.12969         0.35875
C         50.02932        54.26736        -0.09382
C         48.82900        54.96786        -0.08641
C         50.04460        57.17132        -0.68643
C         48.75503        56.39989        -0.44975
C         50.05946        58.62988        -0.47875
C         48.85147        59.30868        -0.37584
C         50.07939        61.46143        -0.47355
C         48.84046        60.76240        -0.37769
C         51.28561        42.30076        -0.79927
C         52.70612        44.33786        -0.14482
C         51.43874        43.54560         0.04900
C         52.81323        45.66191         0.15286
C         51.57928        46.44584         0.64140
C         52.46133        48.66156        -0.29628
C         51.39749        47.89344         0.18310
C         52.57075        50.04791        -0.07247
C         51.34000        50.73258         0.15764
C         52.58133        52.85830         0.05685
C         51.32199        52.15666         0.12873
C         52.57335        54.25180         0.04490
C         51.32434        54.93852        -0.34574
C         52.52804        57.21746        -0.20158
C         51.33217        56.41877        -0.59167
C         52.52445        58.65295        -0.55856
C         51.32613        59.33574        -0.54081
C         52.55286        61.48605        -0.49938
C         51.31274        60.79748        -0.54069
C         54.13966        46.27084         0.36679
C         55.30958        48.56782         0.36067
C         54.38778        47.58045        -0.03424
C         55.15746        49.98962         0.14090
C         53.86185        50.71587         0.00323
C         55.06717        52.90786         0.27114
C         53.83009        52.10663         0.09496
C         55.04931        54.34388        -0.23856
C         53.83235        55.01648         0.40735
C         55.07013        57.24382        -0.05460
C         53.79090        56.52109         0.15631
C         55.06165        58.61737        -0.30662
C         53.83260        59.33700        -0.83536
C         55.01263        61.48900        -0.40938
C         53.79643        60.81705        -0.52254
C         56.34410        50.72293         0.19966
C         57.59424        52.96327        -0.02049
C         56.41144        52.17356         0.28520
C         57.57281        54.38161         0.03832
C         56.32872        55.09577         0.03289
C         57.53562        57.24161        -0.00657
C         56.30856        56.51259         0.02271
C         57.51677        58.66123        -0.10169
C         56.28003        59.35053        -0.27647
C         57.47682        61.49149        -0.29610
C         56.26590        60.79230        -0.35739
C         58.78477        55.12304         0.04679
C         59.99561        57.27711         0.04745
C         58.78829        56.53585         0.03400
C         59.99037        58.68984        -0.00092
C         58.74367        59.38985        -0.09301
C         59.95364        61.52036        -0.16089
C         58.72464        60.81479        -0.18644
C         61.19750        59.44267         0.01611
C         61.16591        60.83274        -0.05851
O         33.09561        54.70047         0.90267
O         46.85289        47.95488        -0.27396
O         48.43354        43.41042        -1.38461
O         47.38674        39.12514         0.65316
O         42.03774        54.82292         2.86479
O         53.46945        48.03412        -1.00446
O         43.36443        52.51971         2.95666
O         36.87432        55.34159        -1.42856
O         47.45237        46.04708         2.67171
O         41.29654        60.29092         1.96418
O         44.42520        56.02754         2.36170
O         55.71923        52.71389         1.51782
O         38.82270        58.74837        -1.54414
O         46.18231        43.64395         2.46661
O         46.63451        52.18405        -0.67012
O         44.19940        58.82987        -1.18131
O         52.92920        57.10866         1.22791
O         49.23671        56.72793        -1.81048
O         51.52735        55.52398        -1.71802
O         36.88457        50.16329         2.17959
O         51.53252        43.03066         1.43245
H         51.66221        43.80504         2.02300
O         39.96742        41.35296         2.68368
H         39.82209        42.28486         2.95807
O         38.48993        47.82810         2.74879
H         39.21703        47.53506         3.33660
O         44.52960        54.04816        -0.71225
H         45.14333        53.42052        -1.16829
O         42.51003        44.16422         3.21741
H         42.57279        43.21934         3.47709
O         38.61667        52.19097         3.01000
H         37.91566        51.50850         3.15567
O         41.15320        57.16362         2.84041
H         41.69481        56.59604         3.43827
O         51.79815        46.56594         2.08684
H         52.66478        47.00713         2.21943
O         40.28109        37.28598         0.08254
H         40.13939        37.59854        -0.83400
O         45.79862        39.10928        -2.62399
H         45.44592        38.44389        -3.26446
O         41.63803        51.99550        -0.17345
H         40.86147        51.49757        -0.50892
O         54.82144        54.34274        -1.66672
H         55.66815        54.16091        -2.12449
O         54.00299        54.84462         1.83304
H         53.47806        55.54960         2.27616
O         38.43894        48.65975        -0.82071
H         38.46615        47.76455        -1.21995
O         31.71315        54.37685        -2.52886
H         32.44753        54.84030        -2.98157
O         46.80966        51.02084         2.80172
H         46.76902        50.18217         3.30757
O         54.00769        59.25530        -2.30161
H         53.27740        59.76500        -2.71342
O         33.00752        62.52578        -1.86483
H         33.17406        62.18400        -2.76693
O         41.36143        50.80350         3.31105
H         42.07519        51.40660         3.63502
O         44.42549        36.75102        -3.28264
H         43.47827        37.00420        -3.23701
H         29.63845        56.41662        -1.64217
H         28.41013        58.51033        -2.07219
H         30.46532        62.30859        -1.79146
H         28.39269        60.99617        -2.27072
H         32.16450        52.09298        -0.93984
H         30.71361        54.42666        -0.73047
H         32.67473        61.84289         0.04077
H         34.50170        47.94445        -0.00566
H         33.32900        50.04516        -0.44107
H         35.35059        62.40449        -0.91508
H         36.98559        43.73930         0.10993
H         35.72740        45.82898         0.22691
H         37.74146        62.47268        -0.53380
H         39.40385        39.34451         0.85751
H         38.17148        41.58079         0.40596
H         40.14458        62.61479         0.04272
H         41.67258        35.40206        -0.59250
H         41.65774        37.41576         1.59843
H         42.73850        62.64634         0.27582
H         44.85941        32.34002        -2.53816
H         42.83008        33.39705        -1.54467
H         45.19830        62.56869        -0.01453
H         46.97860        33.60525        -2.72044
H         48.23242        35.67099        -2.37056
H         47.61954        62.54496        -0.29442
H         49.51445        37.71458        -2.15750
H         50.78002        39.89145        -2.02949
H         50.06407        62.56172        -0.46139
H         52.20299        41.80963        -1.15985
H         53.62108        43.76535        -0.36571
H         52.54380        62.58032        -0.37805
H         54.90153        45.68943         0.90907
H         56.21711        48.25330         0.89845
H         55.01951        62.58664        -0.32303
H         57.29774        50.17473         0.16335
H         58.54728        52.44683        -0.20704
H         57.46926        62.59095        -0.34140
H         59.74226        54.58214         0.06755
H         60.95568        56.74171         0.09395
H         59.94674        62.61782        -0.22583
H         62.15913        58.91453         0.08721
H         62.10838        61.39817        -0.04198
