         234
 CSIRO Nanostructure Databank - Neutral Graphene Oxide Data Set
C          1.12604         2.04177        -0.20670
C          1.09462         3.43832        -0.03125
C          2.32447         1.35562        -0.18329
C          2.27287         4.16182         0.21127
C          1.06361         6.45242         0.17518
C          1.14396         7.80893         0.18793
C          2.21130         5.61431         0.54389
C          2.36919         8.55874         0.39349
C          1.31585        10.60416        -0.69394
C          1.30222        11.98943        -0.90217
C          2.30203        10.01551         0.12340
C          2.36852        12.81023        -0.50363
C          1.17155        15.04834        -1.07410
C          1.17509        16.41291        -1.02512
C          2.31350        14.28507        -0.54022
C          2.37679        17.16018        -0.76683
C          2.41918        18.54465        -0.64963
C          3.56253         2.05438        -0.01278
C          3.51900         3.48252         0.23467
C          4.77478         1.37244        -0.14559
C          4.75466         4.20292         0.43563
C          3.52819         6.37192         0.74077
C          3.56011         7.85754         0.61733
C          4.76430         5.57559         0.55499
C          4.88342         8.47889         0.57077
C          3.28805        10.90827         0.60263
C          3.50995        12.21489         0.11194
C          5.07380         9.90053         0.80063
C          4.82968        12.85972         0.13771
C          3.64097        15.01167        -0.37260
C          3.65628        16.42457        -0.86568
C          4.89660        14.23644        -0.22672
C          4.96372        17.17567        -0.92546
C          3.63534        19.22886        -0.46197
C          4.90598        18.62864        -0.55541
C          6.05837         2.14079        -0.25185
C          6.01599         3.36790         0.65696
C          7.32663         1.33975        -0.05488
C          7.32875         4.11143         0.55235
C          6.03872         6.30878         0.67396
C          6.03499         7.75146         0.36797
C          7.32705         5.56401         0.73759
C          7.29354         8.43972        -0.00995
C          6.11673        10.66987         0.34877
C          6.06384        12.11986         0.24287
C          7.28602         9.95336        -0.28880
C          7.31098        12.78224         0.00273
C          6.12976        14.90299        -0.40773
C          6.18953        16.33414        -0.71868
C          7.33746        14.15336        -0.32283
C          7.38940        16.90284        -1.02097
C          6.03167        19.38069        -0.10176
C          7.35226        19.02167        -0.43750
C          8.52708         1.98188         0.19358
C          8.51676         3.43253         0.42592
C          9.79457         1.31233         0.14433
C          9.78778         4.13556         0.53232
C          8.59513         6.28222         0.56002
C          8.58886         7.72004         0.21675
C          9.77018         5.58963         0.58576
C          9.84322         8.48898         0.35930
C          8.59453        10.63673         0.07749
C          8.58119        12.03708         0.08888
C          9.81848         9.91120         0.22984
C          9.83632        12.73182         0.12093
C          8.64774        14.80560        -0.55591
C          8.70997        16.29746        -0.81707
C          9.86461        14.17270        -0.04961
C          9.85668        17.09345        -0.31357
C          8.57751        19.29566         0.17377
C          9.79420        18.53337         0.00362
C         11.01303         2.00610         0.23093
C         10.98360         3.43972         0.45546
C         12.26636         1.34274         0.04903
C         12.26392         4.18989         0.45663
C         11.00791         6.34759         0.88232
C         11.03414         7.81472         0.64928
C         12.26835         5.56400         1.05090
C         12.27351         8.51750         0.62027
C         11.06515        10.61561         0.27494
C         11.04726        12.02593         0.16178
C         12.30622         9.90233         0.40067
C         12.30615        12.77026        -0.20179
C         11.02079        14.92387         0.06264
C         11.00550        16.36937         0.01405
C         12.30689        14.18304         0.38898
C         12.22742        17.09230         0.44867
C         10.98923        19.20892         0.30655
C         12.25480        18.56561         0.37662
C         13.51022         2.00221         0.03313
C         13.55234         3.47343         0.22124
C         14.73087         1.36000        -0.23187
C         14.85498         4.11006         0.55315
C         13.57122         6.30664         1.12871
C         13.54408         7.79130         0.88650
C         14.86002         5.50613         1.05573
C         14.80719         8.45751         0.44814
C         13.58978        10.61726         0.29784
C         13.60051        12.05852         0.11712
C         14.78846         9.93109         0.33454
C         14.79405        12.78043         0.11500
C         13.51813        14.97827        -0.12955
C         13.53949        16.36541         0.47100
C         14.81308        14.23325         0.09287
C         14.79531        17.12549         0.35549
C         13.47306        19.23509         0.42464
C         14.74605        18.55724         0.39235
C         15.96443         2.07504        -0.28436
C         16.01116         3.45956         0.19024
C         17.13407         1.46519        -0.75057
C         17.34213         4.12137         0.24877
C         16.15144         6.27525         1.01460
C         16.09672         7.72253         0.62037
C         17.41846         5.58163         0.60841
C         17.37520         8.49145         0.75322
C         16.06200        10.58623        -0.15801
C         16.07209        12.08359         0.07008
C         17.33787         9.94256         0.39124
C         17.25339        12.77636         0.04687
C         15.98111        14.95622         0.21481
C         15.99984        16.41743         0.23654
C         17.26424        14.23126         0.32296
C         17.23715        17.14720         0.18088
C         15.95597        19.26357         0.31483
C         17.20129        18.58576         0.21266
C         18.37079         2.17035        -0.91430
C         18.46863         3.53284        -0.51522
C         19.50674         1.55684        -1.50189
C         19.64645         4.26436        -0.72718
C         18.58975         6.41296         0.20940
C         18.63389         7.74591         0.48945
C         19.70403         5.77522        -0.59259
C         19.93790         8.51035         0.65898
C         18.60960        10.59937        -0.05671
C         18.53956        12.08692        -0.22728
C         19.92521         9.94221         0.14648
C         19.82808        12.85599        -0.29111
C         18.53839        15.01478         0.21506
C         18.49004        16.48835         0.10508
C         19.80572        14.34312        -0.19477
C         19.70922        17.19386         0.07102
C         18.42218        19.29498         0.16096
C         19.66348        18.63262         0.10002
C         20.68588         2.26749        -1.67191
C         20.77347         3.62966        -1.30485
C         22.01566         4.37246        -1.46563
C         21.08938         6.29893        -0.23818
C         21.18690         7.72210         0.26141
C         22.19189         5.61611        -0.96022
C         22.40722         8.54439         0.09568
C         21.09935        10.63923         0.03437
C         21.09747        12.16404         0.18919
C         22.35731         9.89792         0.06119
C         22.30160        12.96103        -0.25037
C         21.07029        15.09047        -0.03414
C         20.99840        16.51331         0.05073
C         22.27238        14.33142        -0.23568
C         22.16761        17.30814         0.09404
C         20.88428        19.36831         0.10609
C         22.10394        18.70733         0.11297
O          4.12043        10.48342         1.64736
O         15.64591         5.79087         2.27244
O          7.42002        18.17967        -1.56716
O          4.29149        16.72488        -2.15508
O         13.60283         7.24509         2.24101
O          8.93931        15.33875        -1.90891
O         11.45305         5.82726         2.21475
O         12.80999        16.57351         1.72165
O          6.66704         6.03288         2.01078
O         15.47678         7.81717        -0.71382
O          7.97452         7.78874        -1.15657
O         18.47342        11.18340        -1.39059
O         17.79374         4.55346         1.58470
O         18.06162        14.55503         1.53382
O         21.35431         6.56529         1.16937
O         19.84690        13.64535        -1.51129
O         12.88220         4.22020        -0.89090
O         17.34216         9.53439         1.78119
O          2.75152        14.85512         0.76588
O          2.73241         5.90222         1.88245
O         12.25249        12.86390        -1.66748
H         12.01848        11.98068        -2.02328
O         21.02591        12.33119         1.64949
H         21.65329        11.70291         2.06594
O          7.13333        10.12053        -1.72459
H          7.64204         9.38959        -2.14711
O          6.11174         2.66364        -1.62811
H          6.17399         1.89806        -2.23713
O         16.07370        10.34217        -1.59117
H         15.37256        10.88897        -2.00116
O         20.03998         8.67895         2.10555
H         20.27321         7.79635         2.47378
O         12.41468        13.98064         1.80890
H         12.46760        14.87285         2.23266
O          5.92200         2.89792         2.02660
H          5.95983         3.68651         2.61084
O         19.50155         6.27429        -1.96007
H         18.64937         5.92617        -2.29739
O         13.38876        15.23585        -1.55036
H         13.09629        14.40290        -1.99235
H          0.18298         1.49808        -0.35680
H          0.12370         3.95213        -0.03775
H          2.34482         0.26654        -0.33270
H          0.11688         5.97472        -0.11582
H          0.23231         8.37827        -0.04072
H          0.50966         9.99986        -1.13078
H          0.44414        12.43482        -1.42409
H          0.26804        14.50871        -1.39090
H          0.26028        16.97275        -1.27187
H          1.47914        19.11512        -0.63110
H          4.76388         0.29409        -0.37170
H          3.59402        20.30515        -0.23795
H          7.32022         0.26509        -0.29796
H          5.84764        20.26124         0.53308
H          9.80890         0.22783        -0.04333
H          8.63231        20.14684         0.87043
H         12.25182         0.25596        -0.12684
H         10.94768        20.29848         0.45641
H         14.73581         0.28362        -0.46095
H         13.47666        20.33556         0.40185
H         17.09013         0.41394        -1.07291
H         15.94756        20.36359         0.33221
H         19.44724         0.50454        -1.81470
H         18.40484        20.39466         0.19542
H         21.56481         1.77406        -2.11155
H         22.85131         3.86367        -1.96959
H         23.17302         6.10831        -1.02621
H         23.37690         8.02850         0.04613
H         23.29744        10.46220        -0.02396
H         23.25712        12.45151        -0.44326
H         23.21320        14.87264        -0.41913
H         23.15346        16.82359         0.10250
H         20.84746        20.46687         0.12457
H         23.03799        19.28615         0.13396
