         720
 CSIRO Nanostructure Databank - Neutral Graphene Oxide Data Set
C         24.11029        28.06540        -3.31728
C         23.97296        29.32667        -2.86721
C         23.72717        32.09494        -1.71947
C         23.59160        33.41889        -1.17461
C         23.15124        36.11127         0.05591
C         23.07081        37.32113         0.66857
C         23.64852        40.59384         3.69821
C         24.02002        41.83422         4.22358
C         24.66618        44.59103         5.03892
C         24.81494        45.96008         5.22143
C         26.00582        24.90361        -2.41496
C         25.13497        25.75445        -3.00956
C         26.17607        27.75806        -2.05655
C         25.15449        27.19458        -2.77214
C         26.29105        29.27290        -1.94732
C         24.85147        29.81544        -1.73029
C         25.80897        31.78758        -0.45609
C         24.79192        31.29818        -1.41918
C         25.64733        33.14797         0.17790
C         24.47257        33.93584        -0.26520
C         25.54064        35.97243         0.98241
C         24.27653        35.24740         0.38251
C         25.48365        37.42354         1.28097
C         24.17950        37.91649         1.37372
C         25.76379        40.40944         2.42718
C         24.45420        39.93885         2.76370
C         25.99676        41.78734         2.78738
C         25.12678        42.49582         3.69357
C         26.28040        44.63907         3.23741
C         25.37312        43.90337         4.02240
C         26.39781        46.02901         3.39027
C         25.66126        46.71520         4.38001
C         26.66540        48.87677         3.74958
C         25.84427        48.14611         4.54501
C         28.19496        23.13317        -0.95173
C         28.05892        24.58386        -0.72729
C         27.00368        25.41903        -1.44674
C         28.26160        27.50550        -0.62704
C         27.25715        26.89770        -1.54472
C         28.11318        28.92769        -0.24310
C         27.23919        29.76011        -0.85616
C         28.07712        31.73459         0.56272
C         27.23055        31.26347        -0.61007
C         28.07733        33.15388         0.88941
C         26.87243        33.88819         0.62216
C         28.07366        36.06456         0.82842
C         26.81196        35.26832         0.81209
C         27.92620        37.48514         1.33871
C         26.73474        38.16471         1.48286
C         27.96567        40.33603         1.39695
C         26.79079        39.65156         1.74789
C         28.11138        41.75112         1.57075
C         27.09672        42.47727         2.21453
C         28.34307        44.66713         1.85897
C         27.02009        43.98055         2.09869
C         28.41721        46.01600         1.91016
C         27.27017        46.78094         2.45817
C         28.53721        48.95461         1.95101
C         27.38349        48.27137         2.60995
C         28.53624        50.40322         1.85462
C         30.41121        23.10905         0.10929
C         29.28661        22.45025        -0.51629
C         30.40919        24.49946         0.22822
C         29.23425        25.27933        -0.13126
C         30.35534        27.31400         0.73453
C         29.18337        26.63116         0.13816
C         30.27720        28.75309         1.12315
C         28.81521        29.32072         1.03485
C         30.59871        31.80735         1.84133
C         28.76303        30.79219         1.27851
C         30.50153        33.18900         1.65778
C         29.23769        33.87399         1.41700
C         30.52184        36.04886         1.60190
C         29.21971        35.27982         1.42184
C         30.44596        37.46575         1.07972
C         29.22976        38.24823         1.49796
C         30.41720        40.28468         0.64085
C         29.09238        39.56384         0.74129
C         30.44399        41.72021         0.71983
C         29.33213        42.42482         1.18116
C         30.56361        44.56283         0.71590
C         29.58033        43.85167         1.62181
C         30.36031        46.02196         0.38044
C         29.70565        46.73717         1.58018
C         30.56568        48.88567         0.56387
C         29.53368        48.22573         1.33494
C         30.42563        50.36339         0.22678
C         29.43402        51.07446         1.10429
C         32.86426        20.23448         0.84956
C         31.71079        20.86911         0.57343
C         32.80401        23.10375         1.02534
C         31.54688        22.34218         0.68714
C         32.86878        24.54505         0.72489
C         31.63797        25.23903         0.48328
C         32.85952        27.40528         0.36839
C         31.63002        26.63341         0.48634
C         32.82423        28.89600         0.51563
C         31.52755        29.60360         0.92077
C         32.87342        31.70442         0.94447
C         31.67074        31.01520         1.36375
C         32.88523        33.08963         0.86031
C         31.81945        33.90997         1.51697
C         32.90283        36.01744         0.66731
C         31.61025        35.26174         0.84958
C         32.83184        37.39834         0.47145
C         31.58598        38.11011         0.62527
C         32.84017        40.25894         0.18776
C         31.58172        39.56589         0.43971
C         32.81854        41.70545         0.05604
C         31.66290        42.41665         0.36941
C         32.61465        44.50793        -0.70885
C         31.60817        43.86304         0.21567
C         32.70825        46.01455        -0.52723
C         31.64451        46.71895        -0.03536
C         32.66038        48.90597        -0.75560
C         31.60229        48.17610        -0.01319
C         32.80953        50.35869        -0.51391
C         31.78010        51.04788         0.11445
C         33.10854        53.09327         0.17932
C         32.01228        52.40129         0.56949
C         35.00553        19.42476        -0.68123
C         35.33083        20.39458         0.25936
C         34.20048        20.87488         1.21000
C         35.15302        23.14753         1.61291
C         34.08359        22.39137         1.22799
C         35.21535        24.57960         1.44711
C         34.06457        25.23809         0.91573
C         35.37387        27.43361         0.99643
C         34.16814        26.66761         0.60022
C         35.34159        28.82498         1.00916
C         34.12718        29.57720         0.75862
C         35.35265        31.70219         1.18502
C         34.12166        30.95805         0.81840
C         35.33194        33.18907         1.17110
C         34.14517        33.79493         0.43125
C         35.36041        35.97227         0.48017
C         34.11477        35.29527         0.55782
C         35.33089        37.44353         0.39714
C         34.04960        38.09145        -0.08035
C         35.29500        40.32833        -0.17913
C         34.04081        39.58524         0.08642
C         35.15916        41.69891        -0.70971
C         33.99069        42.37942        -0.45159
C         35.06854        44.45360        -1.40905
C         34.00823        43.88366        -0.46810
C         35.02612        45.92966        -1.68983
C         34.03826        46.70610        -0.78785
C         35.13859        48.86151        -1.40131
C         33.86129        48.14346        -1.22076
C         35.19298        50.27097        -1.18401
C         34.06351        51.00101        -0.80483
C         35.38300        53.18856        -0.96946
C         34.03245        52.51984        -0.86146
C         35.49493        54.58505        -0.96902
C         37.28213        19.30948        -1.49020
C         35.96344        18.88429        -1.55296
C         37.69208        20.36065        -0.62409
C         36.68294        20.91008         0.25284
C         38.16366        22.85071         0.62752
C         37.07133        22.05201         1.01711
C         38.26916        24.23464         1.04366
C         36.40999        25.30845         1.59013
C         37.87389        27.28501         1.11863
C         36.57070        26.67678         1.27002
C         37.90748        28.75561         1.32448
C         36.59129        29.54022         1.37008
C         37.85638        31.69963         1.14719
C         36.65345        31.00804         1.21732
C         37.87679        33.15475         0.99549
C         36.63616        33.97174         1.31001
C         37.82935        36.00610         0.38883
C         36.59504        35.32547         0.64492
C         37.83471        37.35342         0.01087
C         36.63834        38.17516         0.17448
C         37.70341        40.19032        -1.12969
C         36.62656        39.62573        -0.25874
C         37.51559        41.50282        -1.57010
C         36.34403        42.33956        -1.25680
C         37.43630        44.38561        -2.34341
C         36.31835        43.68255        -1.59593
C         37.56389        45.90044        -2.19199
C         36.21605        46.68851        -2.36581
C         37.27725        48.96254        -2.44734
C         36.23771        48.16168        -1.93897
C         37.61190        50.24629        -1.96943
C         36.53942        50.97011        -1.17509
C         37.80814        53.03531        -1.72727
C         36.44418        52.39709        -1.69061
C         37.82139        54.52126        -1.97825
C         36.61857        55.23870        -1.44374
C         40.53828        16.05231        -1.77340
C         39.36004        16.73124        -2.10905
C         40.30883        18.85701        -1.31658
C         39.25762        18.10523        -1.90298
C         40.25092        20.28500        -1.09217
C         39.00509        20.98152        -0.72734
C         40.20076        23.20243        -0.80818
C         39.11762        22.30484        -0.26966
C         40.31325        24.56080        -0.12782
C         39.11554        25.17448         0.44591
C         40.22355        27.41631         0.34744
C         39.03094        26.60124         0.70403
C         40.31218        28.84681         0.70958
C         39.12788        29.53630         1.03753
C         40.35414        31.64032         0.96139
C         39.11561        30.95259         1.06369
C         40.32764        33.11912         1.09072
C         39.05917        33.84939         0.82614
C         40.28932        35.98428         0.38222
C         39.09202        35.27628         0.52623
C         40.32355        37.32285        -0.17955
C         39.03042        37.94931        -0.61990
C         40.29259        39.94632        -1.56097
C         38.94807        39.31271        -1.30557
C         40.42704        41.04683        -2.34940
C         38.51749        42.23119        -2.33325
C         40.06502        44.22730        -2.53755
C         38.72662        43.59042        -2.27962
C         40.09085        45.70230        -2.23113
C         38.82090        46.43876        -2.37134
C         40.09416        48.61096        -2.30763
C         39.05705        47.83971        -2.70471
C         40.10325        50.09953        -2.67467
C         38.85667        50.85653        -2.16286
C         40.17297        53.02548        -2.50560
C         38.93943        52.29102        -1.98317
C         40.31139        54.40355        -1.86418
C         39.14412        55.13308        -1.56874
C         40.47726        57.01395        -0.81272
C         39.23666        56.42521        -1.02424
C         42.90818        15.99231        -1.25902
C         41.64936        16.73158        -1.25314
C         42.58075        18.90629        -0.47705
C         41.50946        18.14250        -0.99704
C         42.70915        20.28308        -0.69866
C         41.48328        20.97449        -0.96632
C         42.82630        23.10974        -0.64154
C         41.52103        22.45234        -0.96283
C         42.77779        24.45717        -0.00066
C         41.51031        25.21400        -0.01390
C         42.79830        27.40419         0.35944
C         41.54483        26.68660         0.10558
C         42.80064        28.79096         0.44130
C         41.54896        29.53174         0.59314
C         42.88403        31.62953         0.92030
C         41.56835        30.93724         0.81553
C         42.91414        33.14136         1.03615
C         41.60549        33.88758         1.11805
C         42.87718        36.01388         0.44543
C         41.57941        35.35402         0.78784
C         42.81783        37.38285        -0.12314
C         41.52257        37.99992        -0.35975
C         42.84077        39.94736        -1.42492
C         41.53890        39.23313        -1.18767
C         42.85428        41.35603        -1.95029
C         41.58877        41.95928        -2.46365
C         42.60465        44.26997        -2.08462
C         41.40290        43.48509        -2.49856
C         42.45914        45.65357        -1.47935
C         41.22819        46.40672        -1.93099
C         42.52075        48.62668        -1.67097
C         41.19115        47.89719        -1.56177
C         42.58479        50.02330        -1.91417
C         41.39345        50.80548        -2.27072
C         42.72747        52.88513        -2.43469
C         41.43261        52.17759        -2.34374
C         42.77364        54.37712        -2.26837
C         41.55994        55.04284        -1.75177
C         42.94829        56.95405        -0.97056
C         41.65242        56.34739        -1.20679
C         44.18850        16.45665        -1.14991
C         45.40925        18.72450        -1.10897
C         44.47816        17.80142        -0.69929
C         45.31932        20.14616        -0.60467
C         44.02203        20.93106        -0.53906
C         45.29932        23.09952        -0.39856
C         44.06829        22.31151        -0.44695
C         45.28836        24.46525        -0.15184
C         44.06574        25.15424         0.31432
C         45.29825        27.38724         0.25526
C         44.06583        26.64442         0.70379
C         45.30077        28.76410         0.20837
C         44.06670        29.51367         0.39900
C         45.37269        31.60673         0.43155
C         44.11593        30.90096         0.50410
C         45.39595        33.08192         0.65593
C         44.13855        33.85723         0.61044
C         45.33213        35.88624        -0.10914
C         44.13621        35.21436         0.32975
C         45.23012        37.28864        -0.59202
C         43.99721        38.05711        -0.31814
C         45.28730        40.22980        -0.78232
C         43.95451        39.56015        -0.45014
C         45.24581        41.65678        -1.23201
C         43.94530        42.25456        -1.56494
C         45.07203        44.43405        -1.73574
C         43.83100        43.62240        -1.83010
C         44.97000        45.82854        -1.27319
C         43.74041        46.47107        -1.38655
C         44.88359        48.62694        -0.97389
C         43.69748        47.91618        -1.32656
C         44.93290        50.02181        -1.11889
C         43.83384        50.68903        -1.70518
C         45.24224        52.83488        -1.81199
C         43.99022        52.09956        -2.11678
C         45.32920        54.20145        -1.91761
C         44.10863        55.05075        -2.02944
C         44.10459        56.33363        -1.29686
C         47.72485        19.00359        -1.93123
C         46.59887        18.26995        -1.80573
C         47.75592        20.46686        -1.60584
C         46.57878        20.95384        -0.77114
C         47.77395        23.11070        -0.61711
C         46.55711        22.43191        -0.66332
C         47.78455        24.53483        -0.43601
C         46.48586        25.30405        -0.52389
C         47.78279        27.38390        -0.16442
C         46.57737        26.59996         0.29674
C         47.73026        28.78768        -0.30152
C         46.54101        29.49695        -0.02273
C         47.92765        31.57677         0.13192
C         46.55138        30.92072         0.11800
C         47.88200        33.08019        -0.06927
C         46.68462        33.83961         0.33282
C         47.76136        35.88626        -0.59835
C         46.56473        35.23318        -0.15016
C         47.76251        37.24273        -1.26150
C         46.44788        37.99435        -1.11097
C         47.70091        40.15053        -1.32309
C         46.49885        39.47179        -1.11363
C         47.72399        41.58609        -1.49251
C         46.44678        42.24321        -1.95331
C         47.54557        44.44520        -1.11415
C         46.40597        43.76673        -1.77275
C         47.38545        45.77346        -0.61528
C         46.16374        46.46064        -0.77676
C         47.31183        48.63333        -0.01760
C         46.02405        47.87790        -0.39478
C         47.36565        50.03776        -0.33414
C         46.12390        50.83728        -0.62273
C         47.70270        52.77600        -1.17638
C         46.47137        51.98260        -1.59580
C         47.75006        54.16104        -1.51959
C         46.61376        54.85310        -1.84758
C         50.25695        20.30001        -0.98008
C         49.05530        21.01096        -1.03188
C         50.26185        23.03001        -0.36173
C         49.04613        22.37976        -0.66948
C         50.22054        24.47990        -0.05018
C         48.96555        25.23007        -0.25312
C         50.24210        27.39741        -0.36996
C         48.98664        26.67342        -0.26883
C         50.23572        28.79548        -0.58061
C         48.92115        29.43904        -0.95994
C         50.23640        31.62573        -0.86371
C         48.86271        30.98509        -0.96129
C         50.23870        33.12460        -1.01239
C         48.98679        33.77105        -0.47396
C         50.23437        35.94412        -0.64632
C         48.97599        35.21304        -0.58632
C         50.22602        37.36071        -0.68104
C         48.98084        38.06497        -0.91482
C         50.21302        40.17129        -1.17282
C         48.94385        39.42260        -1.13627
C         50.19456        41.68322        -1.31347
C         48.87422        42.36043        -1.35651
C         49.96198        44.53267        -0.65531
C         48.76956        43.76746        -1.07572
C         49.80834        45.59765         0.43376
C         48.42851        46.38342         0.34139
C         49.66908        48.54637         0.95825
C         48.64354        47.87517        -0.00265
C         49.73060        50.06699         0.69778
C         48.58202        50.77839         0.00438
C         50.00235        52.78919        -0.20893
C         48.76915        52.14900        -0.51567
C         51.45280        20.93800        -0.62582
C         52.79454        23.03976        -0.22315
C         51.48439        22.31219        -0.34794
C         52.78421        24.52449        -0.25260
C         51.49692        25.25933        -0.02555
C         52.69878        27.41905        -0.40001
C         51.47659        26.72291        -0.24758
C         52.69884        28.80521        -0.71189
C         51.45952        29.48625        -0.74929
C         52.69608        31.68277        -0.98412
C         51.40912        30.94045        -0.87203
C         52.74671        33.06691        -0.42944
C         51.45484        33.80524        -0.40790
C         52.67018        35.99118        -0.23593
C         51.46602        35.28540        -0.43762
C         52.66942        37.41403        -0.24380
C         51.43023        38.06421        -0.45282
C         52.61038        40.30845        -0.19888
C         51.36329        39.53391        -0.45284
C         52.70421        41.66270        -0.87029
C         51.38984        42.40267        -0.91482
C         52.36007        44.34575         0.29900
C         51.27741        43.82178        -0.61053
C         52.32042        45.83213         0.58254
C         51.08298        46.47389         0.54797
C         52.18686        48.60827         1.18093
C         51.02123        47.86942         0.85594
C         52.18510        50.05000         1.19270
C         51.03793        50.76344         0.74206
C         51.07303        52.12712         0.37693
C         55.04319        23.10782         0.87202
C         54.02542        22.40590         0.32919
C         55.05897        24.59616         0.98862
C         53.94071        25.31671         0.29032
C         55.12891        27.40001        -0.46826
C         53.95415        26.71411        -0.23231
C         55.21993        28.81040        -0.60869
C         53.99761        29.44680        -1.24985
C         55.27485        31.70972        -0.91640
C         53.98417        30.96895        -1.15405
C         55.21933        33.18043        -0.66192
C         54.02978        33.81083        -0.43689
C         55.21325        36.04708        -0.00268
C         53.94360        35.25074        -0.04692
C         55.17222        37.52717        -0.02466
C         53.91329        38.19572        -0.08973
C         55.09408        40.42873         0.33087
C         53.88772        39.59754        -0.04870
C         55.26845        41.85053        -0.37536
C         53.87836        42.48135        -0.39962
C         55.26547        44.87038         0.66512
C         53.63877        43.80317        -0.27708
C         54.81376        45.87903         1.45351
C         53.39138        46.41971         1.49799
C         54.48649        48.58970         2.09313
C         53.39635        47.92141         1.54170
C         54.43838        50.01325         2.14614
C         53.35769        50.71546         1.65625
C         56.73603        25.13528         2.81417
C         56.25474        25.36364         1.51265
C         57.12645        27.70655         1.60306
C         56.62225        26.57620         0.90120
C         57.05121        29.06268         1.10532
C         56.30035        29.51167        -0.03167
C         57.77427        31.62774        -0.05302
C         56.47835        30.93418        -0.45516
C         57.78563        33.15340        -0.29102
C         56.52291        33.91169        -0.61147
C         57.65125        36.06597         0.22614
C         56.49661        35.44294        -0.54668
C         57.65137        37.55161         0.24639
C         56.40270        38.25374         0.11021
C         57.57610        40.38261         0.54981
C         56.39117        39.66449         0.26256
C         57.50934        41.81486         0.81330
C         56.35898        42.58553         0.46973
C         57.28505        44.40136         1.89802
C         56.30757        43.90866         0.98445
C         57.01202        45.63187         2.69778
C         55.71320        46.36319         2.51974
C         57.01419        48.46018         2.31659
C         55.67691        47.88175         2.76590
C         57.47317        26.12994         3.46490
C         58.14186        28.49378         3.73618
C         57.59666        27.42337         2.92732
C         58.07876        29.77848         3.33489
C         57.41288        30.20303         2.05970
C         59.28195        31.97330         1.87842
C         58.19144        31.27180         1.33887
C         59.73905        33.15155         1.32473
C         59.10238        33.83536         0.13660
C         60.14880        36.14763         0.56918
C         58.93448        35.31959         0.47296
C         60.08238        37.49986         0.62797
C         58.83490        38.24215         0.53603
C         59.95385        40.39515         1.14242
C         58.80328        39.67271         0.71014
C         59.86480        41.71277         1.51912
C         58.64318        42.44630         1.42189
C         59.62910        44.47745         2.61293
C         58.52404        43.75757         1.98566
C         59.50075        45.72696         3.10397
C         58.18847        46.45856         3.23316
C         58.16790        47.80458         2.50923
O         42.58866        41.45924        -3.40571
O         26.78808        24.96800        -0.07131
O         40.74136        27.24378        -1.01356
O         51.97330        33.20237         0.81436
O         45.55463        41.35182         0.17210
O         57.44907        33.47525        -1.66974
O         43.35284        24.37342         1.36013
O         53.01690        23.82167        -1.49656
O         43.11624        32.29871         2.21150
O         50.92437        44.74990        -1.72953
O         54.65953        35.49135         1.22682
O         56.34322        26.69395        -0.46218
O         46.29447        33.55728         1.72094
O         34.46331        44.99574        -2.64829
O         51.62087        40.16444         0.86565
O         33.70494        26.99026        -0.75991
O         55.90962        45.49718         3.67555
O         31.97106        29.52272        -0.49116
O         50.46466        40.75585        -2.48830
O         28.55777        27.32152        -2.09462
O         40.90708        33.60422         2.36611
O         38.13520        18.73717        -2.43601
O         23.74020        39.00190         2.06200
O         29.48232        31.15556         2.41122
O         45.47412        37.43056        -2.07503
O         43.56084        18.26207         0.26554
O         36.30257        22.49081         2.08606
O         48.73131        50.75581         1.51989
O         57.94299        35.49481         1.54196
O         46.30932        48.25695         0.99129
O         43.45900        55.09198        -3.34173
O         39.89617        53.24607        -3.88545
O         26.51477        47.66435         1.56095
O         25.34122        31.91168         0.92135
O         42.33913        23.06192        -2.03209
O         37.25717        29.09892         2.59957
O         31.80553        22.77902         2.08233
O         40.78438        43.93514        -3.77956
O         30.33449        27.77610         2.20262
O         35.00636        32.53042         2.42821
O         46.27253        20.32570         0.51062
O         42.41804        38.96779        -2.38296
O         38.04248        48.43732        -3.48444
O         43.55961        52.35566        -3.50358
O         54.64582        44.70589        -0.57140
O         56.25397        31.19019        -1.87903
O         24.59938        35.19978         1.79985
O         53.30322        31.57526        -2.31897
O         36.30964        40.44705         0.92486
O         45.89889        44.41446        -2.98759
O         38.78907        38.08305        -2.08928
O         50.87013        24.83436         1.23158
O         42.33007        36.09012         1.81780
O         32.81169        48.46636        -2.16762
O         48.27649        31.45643        -2.20201
O         49.78775        44.84464         1.63634
O         36.01876        38.05312         1.50903
O         39.34899        41.45367        -3.11414
O         53.91267        25.15594         1.75570
O         37.51551        24.64323         2.15112
O         40.06027        50.19093        -4.11763
H         39.21161        49.79778        -4.42173
O         46.32020        41.92471        -3.35042
H         46.00136        42.74135        -3.80681
O         52.93754        46.00029         2.82953
H         52.73739        45.03049         2.76713
O         28.03213        28.70322         2.07939
H         28.64462        28.11627         2.59332
O         60.01685        33.73294        -0.97744
H         60.01445        32.78461        -1.24804
O         36.01083        52.35376        -3.09124
H         36.39489        53.16067        -3.52713
O         29.42542        38.58072         2.89748
H         29.82980        37.79151         3.33415
O         35.94659        46.72106        -3.77278
H         35.89888        45.78068        -4.07482
O         46.27819        25.69257        -1.91773
H         46.29323        24.87871        -2.46466
O         29.42943        46.09256        -0.72445
H         29.84125        45.64141        -1.49225
O         34.36997        44.24146         0.90935
H         35.01737        43.58261         1.24206
O         54.86053        40.78245         1.73046
H         54.60594        39.97257         2.22111
O         36.78487        34.30161         2.72187
H         36.40495        33.54691         3.23118
O         27.77378        31.89173        -1.80494
H         27.47364        31.35303        -2.58167
O         49.26343        48.36826         2.31946
H         48.57632        49.04478         2.51567
O         49.91200        29.35141        -3.16560
H         50.43362        28.51253        -3.20920
O         30.59493        46.61227         2.71941
H         31.45210        47.02475         2.48297
O         55.55807        48.10920         4.19174
H         54.82033        47.54629         4.51301
O         32.10473        44.20543        -2.02491
H         32.74779        44.55973        -2.68717
O         34.72417        46.85259         0.49390
H         34.69909        45.96931         0.94711
O         28.69828        39.25247        -0.62348
H         28.55609        40.09804        -1.09768
O         28.48242        36.22178        -0.61006
H         28.32977        35.35514        -1.04826
O         45.72686        51.45246         0.63554
H         45.73382        50.75449         1.32607
O         36.96837        51.06273         0.20891
H         37.06959        50.15583         0.56602
O         52.15425        43.69988         1.59064
H         51.21003        43.97952         1.84974
O         34.04109        37.85755        -1.53534
H         33.17199        38.15001        -1.88383
O         29.86121        50.42237        -1.12346
H         30.43915        49.89569        -1.71713
O         31.10097        34.99788        -0.48567
H         30.46335        35.71410        -0.72128
O         58.79661        31.12339        -0.97096
H         58.38493        31.16688        -1.86529
O         49.21687        47.99076        -1.32168
H         48.73415        47.40121        -1.93963
O         30.21123        43.72286         2.94043
H         31.05646        43.23947         2.82330
O         24.34054        29.18275        -0.52303
H         24.53893        29.75674         0.24852
O         56.11926        30.83465         2.43104
H         55.78130        30.39068         3.23793
O         50.27971        33.41305        -2.43442
H         49.52610        32.91749        -2.83479
O         46.78717        51.32786        -2.85819
H         46.67744        51.98164        -3.58068
O         43.49305        40.06893         0.82932
H         44.18318        40.69174         1.16543
O         47.92654        36.97023        -2.68664
H         47.01986        36.86387        -3.05935
O         30.79809        36.20864         3.01914
H         31.32926        35.43660         3.33817
O         46.81980        26.24728         1.68643
H         45.98114        26.38906         2.19316
O         48.73099        28.97275        -2.41282
H         48.35332        30.73063        -2.86503
O         48.52594        31.30597         1.41713
H         47.99816        31.77571         2.09926
O         58.01024        46.72807         4.63623
H         57.11111        47.12925         4.74022
O         26.78223        29.77419        -3.22489
H         27.56912        29.23440        -3.46025
O         42.14058        45.39030        -0.03176
H         42.95894        45.05530         0.39743
O         54.01583        29.08920        -2.65476
H         53.69549        29.87862        -3.15133
O         55.77989        41.66842        -1.69414
H         55.00985        41.54631        -2.29763
O         37.70004        54.61707        -3.43831
H         38.54522        54.17422        -3.81854
O         40.84855        47.92107        -0.13614
H         41.33317        47.17052         0.28616
O         34.39307        33.49969        -0.97894
H         33.61282        33.80738        -1.48813
O         32.37835        34.14023         2.87053
H         33.10623        33.49330         3.02821
O         56.58383        35.92510        -1.90681
H         57.14664        35.28777        -2.40530
O         39.75784        23.53930        -2.15742
H         40.56578        23.79289        -2.66093
O         37.04486        44.25297        -3.77214
H         37.84933        44.40879        -4.31474
O         33.40838        52.80188        -2.16852
H         34.07307        52.53407        -2.85157
O         44.14849        26.66206         2.17726
H         43.66041        25.86127         2.48949
O         34.55525        20.40928         2.53183
H         33.94005        20.82513         3.17127
O         47.57961        21.16381        -2.88722
H         48.31455        20.89529        -3.47781
O         47.81201        46.29079         1.62170
H         48.40709        45.66934         2.13942
O         26.21287        44.19775         0.88940
H         26.11907        45.16822         0.76773
O         53.05989        41.34099        -2.26972
H         52.21679        41.09845        -2.73816
H         23.43532        27.65996        -4.08555
H         23.16478        29.96537        -3.25076
H         22.92983        31.73877        -2.38613
H         22.71445        34.00375        -1.48459
H         22.35843        35.76729        -0.62121
H         22.17162        37.94272         0.55688
H         22.67515        40.15446         3.95165
H         23.36005        42.32511         4.94991
H         23.97896        44.04375         5.69864
H         24.24952        46.46913         6.01533
H         25.93103        23.81986        -2.58456
H         24.36437        25.35991        -3.68837
H         26.83024        49.94132         3.97256
H         25.32067        48.63547         5.38004
H         27.35710        22.59513        -1.41717
H         27.76844        50.96135         2.40985
H         29.32951        21.36071        -0.65789
H         29.36144        52.16805         1.02042
H         32.83921        19.13397         0.88988
H         30.81288        20.26632         0.36224
H         33.27468        54.11710         0.54383
H         31.29719        52.85866         1.26828
H         33.97472        19.05831        -0.76871
H         34.64208        55.19036        -0.62449
H         35.67454        18.12539        -2.29073
H         36.57612        56.33003        -1.56571
H         40.61808        14.97768        -1.99188
H         38.52944        16.19446        -2.58482
H         40.54440        58.02050        -0.37617
H         38.32779        56.98533        -0.76630
H         42.79735        14.94084        -1.57227
H         42.97169        57.92057        -0.44539
H         45.01761        15.78231        -1.41354
H         45.06655        56.77494        -0.99819
H         48.60297        18.56586        -2.42972
H         46.60341        17.21933        -2.13519
H         48.69712        54.71150        -1.43308
H         46.67538        55.92854        -2.06078
H         50.27737        19.23099        -1.23513
H         50.15229        53.83574        -0.50636
H         52.38551        20.35667        -0.61667
H         52.01514        52.68150         0.49341
H         55.92351        22.56548         1.25062
H         54.09405        21.30703         0.30385
H         55.28186        50.56213         2.58809
H         53.36890        51.81288         1.70779
H         56.50144        24.19597         3.33355
H         57.01996        49.44998         1.83337
H         57.85466        25.94268         4.47872
H         58.58135        28.23565         4.71114
H         58.44758        30.57304         3.99946
H         59.74982        31.62691         2.81165
H         60.57226        33.68004         1.81014
H         61.12492        35.64299         0.53417
H         61.02359        38.06264         0.69231
H         60.91820        39.88197         1.24992
H         60.76043        42.20680         1.91903
H         60.62298        44.00727         2.62382
H         60.38093        46.23080         3.53149
H         59.12036        48.26337         2.20045
