         576
 CSIRO Nanostructure Databank - Neutral Graphene Oxide Data Set
C          6.23072        18.88944         1.31318
C          6.30385        20.40879         1.18265
C          4.95191        21.12538         1.11567
C          5.98738        23.24887         0.41027
C          4.83466        22.43317         0.77918
C          6.02074        24.61888         0.39594
C          8.45449        14.58170         0.56218
C          8.42742        15.99229         0.22295
C          7.31390        16.65514         0.80101
C          8.47773        18.99484        -0.59884
C          6.86541        17.98335         0.50180
C          8.47786        20.36621        -0.32386
C          7.13688        21.01836        -0.02997
C          8.49367        23.28302        -0.04839
C          7.25882        22.50612         0.27162
C          8.42236        24.73792        -0.30787
C          7.20140        25.41219         0.06367
C          8.05979        27.74177        -0.22217
C          7.12600        26.80528         0.30079
C          8.53729        28.94699         0.29894
C         10.86410        10.52307        -1.08112
C         10.77747        11.69890        -0.40913
C          9.54891        12.24872         0.22107
C         10.99369        14.68414        -0.69242
C          9.21344        13.57122        -0.06921
C         10.88685        16.06065        -0.43811
C          9.57458        16.73368        -0.38330
C         10.90025        18.85694        -0.81274
C          9.61176        18.12904        -0.60753
C         10.89327        20.38981        -0.99057
C          9.67629        21.11550        -0.45178
C         10.90598        23.25770        -0.55819
C          9.70094        22.52108        -0.42023
C         10.90904        24.65906        -0.60118
C          9.65006        25.37772        -0.63881
C         10.90497        27.54616        -0.79704
C          9.74099        26.75902        -0.95330
C         10.85473        28.99037        -0.76209
C          9.68725        29.66526        -0.18707
C         10.43954        32.07813        -0.32711
C          9.70380        31.03173         0.25559
C         10.63036        33.37241         0.17895
C         13.29249         6.40026        -0.86292
C         13.30558         7.81935        -1.17197
C         12.13862         8.45525        -1.49047
C         13.39791        10.60691        -1.78907
C         12.03828         9.90641        -1.87470
C         13.49263        11.94452        -2.11256
C         12.04211        12.48184        -0.11943
C         13.38879        14.61400        -0.40483
C         12.15724        13.92100        -0.49116
C         13.34307        16.01061        -0.23589
C         12.12100        16.72036        -0.20210
C         13.34714        19.00665         0.10169
C         12.18239        18.17935        -0.43882
C         13.50243        20.32078        -0.71391
C         12.18000        21.05073        -0.50943
C         13.46741        23.23494        -0.73951
C         12.17725        22.52995        -0.41915
C         13.40271        24.71154        -0.46502
C         12.15064        25.39637        -0.59684
C         13.36682        27.53515        -0.58358
C         12.13731        26.81977        -0.62991
C         13.34902        28.91947        -0.87077
C         12.12870        29.65744        -0.98652
C         13.40548        31.81760        -1.19636
C         12.22395        31.05991        -1.27422
C         13.42216        33.24355        -1.17128
C         11.58189        34.29197        -0.38195
C         13.19495        36.20695        -0.59031
C         12.07196        35.46048         0.13031
C         13.33002        37.57088         0.03133
C         15.72375         6.35155        -0.59408
C         14.43122         5.70406        -0.60952
C         15.78507         7.77520        -0.87674
C         14.59157         8.51421        -1.19757
C         15.93799        10.53884        -1.74990
C         14.62426         9.87998        -1.52074
C         16.00982        12.04538        -2.10363
C         14.69621        12.76685        -1.79454
C         15.97477        14.57446        -0.43246
C         14.65618        14.01531        -0.94886
C         15.88319        16.08004        -0.30882
C         14.61306        16.74255        -0.02221
C         15.89874        18.97985        -0.11255
C         14.64932        18.22762         0.16377
C         15.87350        20.41556         0.11161
C         14.68465        21.11804        -0.19087
C         15.79668        23.23251         0.27694
C         14.65182        22.51519        -0.14274
C         15.82317        24.68463         0.11692
C         14.60202        25.39578        -0.27593
C         15.82655        27.52352        -0.31623
C         14.60812        26.82844        -0.37952
C         15.86592        28.92155        -0.51994
C         14.65206        29.58483        -1.01725
C         15.85167        31.80719        -0.59674
C         14.69095        31.10986        -1.13166
C         15.69412        33.24269        -0.14028
C         14.52536        34.00995        -0.73373
C         15.77082        36.14144        -0.44558
C         14.52795        35.42916        -0.56521
C         15.79387        37.57110        -0.09331
C         14.51029        38.17001         0.25630
C         18.16774         6.25724        -0.26615
C         16.88148         5.62797        -0.35213
C         18.20181         7.71047        -0.37809
C         17.02433         8.41745        -0.77158
C         18.39095        10.53298        -0.80960
C         17.18754         9.79924        -1.25653
C         18.47721        11.99152        -1.04787
C         17.30384        12.75373        -1.60562
C         18.39861        14.88534        -0.68490
C         17.19093        14.26266        -1.36947
C         18.31512        16.17176        -0.23776
C         17.02808        16.83245        -0.35957
C         18.20553        18.99032         1.61889
C         17.03365        18.27071        -0.45874
C         18.22283        20.38439         1.06020
C         17.00484        21.09548         0.64646
C         18.09816        23.25976         1.21577
C         16.94675        22.51324         0.69162
C         18.14864        24.75619         0.97442
C         16.99187        25.38731         0.31833
C         18.24630        27.59323         0.31745
C         17.12490        26.76773        -0.25216
C         18.24821        28.94926         0.11558
C         17.05366        29.65969        -0.31949
C         18.15987        31.86918         0.23682
C         16.99868        31.10144        -0.28472
C         18.17425        33.33579         0.01877
C         16.99777        33.98594        -0.28286
C         18.28105        35.98641        -0.76608
C         16.98825        35.39484        -0.52716
C         18.25365        38.09366        -0.28744
C         16.90254        38.38551         0.12186
C         20.63158         6.18627        -0.06478
C         19.35001         5.52974        -0.14557
C         20.58419         7.64149         0.25937
C         19.37556         8.41599        -0.09862
C         20.57074        10.58414         0.49446
C         19.41356         9.85463        -0.17325
C         20.73172        12.02885         0.04005
C         19.61977        12.72802        -0.45771
C         20.78961        14.89133        -0.24946
C         19.63357        14.15854        -0.47460
C         20.73968        16.40992        -0.05430
C         19.38986        16.66372         0.74726
C         20.73592        18.94229         1.60653
C         19.45741        18.07927         1.48623
C         20.70805        20.42462         1.30966
C         19.43188        21.07580         1.18628
C         20.68558        23.31614         1.48126
C         19.39347        22.53831         1.42382
C         20.66108        24.78145         1.24225
C         19.46700        25.43331         0.98591
C         20.71068        27.64720         1.07684
C         19.40947        26.90519         0.92340
C         20.76617        29.04976         0.63895
C         19.55676        29.69095        -0.00009
C         20.72748        31.91251         0.29425
C         19.45420        31.14585         0.40558
C         20.70259        33.38663         0.48209
C         19.41495        34.11431         0.23924
C         20.76470        36.29159        -0.49709
C         19.46972        35.48279        -0.29428
C         20.71347        37.73713         0.04325
C         19.45309        38.42822         0.29913
C         23.15182         6.27526        -0.37452
C         21.83805         5.54361        -0.18010
C         23.15886         7.68904         0.16897
C         21.88157         8.38511         0.36487
C         23.09676        10.49476         0.74364
C         21.87246         9.83702         0.35922
C         23.13416        12.04427         0.72062
C         21.95053        12.71056         0.19659
C         23.33396        14.85605         0.04890
C         22.03671        14.12852        -0.18084
C         23.27727        16.29807         0.40927
C         22.00053        16.98252         0.59940
C         23.22113        18.92352         1.60390
C         21.98817        18.23529         1.16425
C         23.17465        20.43518         1.88510
C         21.91087        21.13799         1.40441
C         23.16927        23.29580         1.42765
C         21.96330        22.57692         1.36551
C         23.17466        24.74942         1.40177
C         21.93661        25.47835         1.28102
C         23.18676        27.60564         1.15224
C         21.96860        26.88568         1.16868
C         23.18941        29.03623         1.02884
C         21.94790        29.72917         0.74683
C         23.22872        31.92574         0.87189
C         22.01137        31.18474         0.49589
C         23.16745        33.42923         1.09313
C         22.01475        34.07972         0.30554
C         23.12531        36.30754         0.76893
C         22.03211        35.53571        -0.00304
C         23.20619        37.73830         0.25537
C         21.90361        38.39764         0.21916
C         25.56702         6.19797         0.22435
C         24.40200         5.52576         0.04943
C         25.60250         7.66266         0.24800
C         24.33998         8.37717         0.33869
C         25.58568        10.47581         0.81327
C         24.38338         9.79533         0.64841
C         25.64739        11.91672         0.83058
C         24.46131        12.67690         0.65655
C         25.74193        14.73962         0.63704
C         24.51463        14.07886         0.50350
C         25.75030        16.19863         0.42357
C         24.47437        16.92452         0.63158
C         25.73579        19.07104         1.13178
C         24.52617        18.25298         1.25906
C         25.67302        20.44567         1.29667
C         24.45262        21.16732         1.49618
C         25.64677        23.34266         1.44610
C         24.43981        22.58670         1.44749
C         25.66080        24.75853         1.51444
C         24.39857        25.46449         1.44867
C         25.62908        27.62468         1.30285
C         24.42286        26.90108         1.32090
C         25.63851        29.03616         1.05290
C         24.38761        29.75948         1.00181
C         25.72472        31.92775         1.00114
C         24.39156        31.21411         0.96102
C         25.60774        33.37077         0.53447
C         24.46636        34.08486         0.68548
C         25.76312        36.30590         0.52265
C         24.47393        35.57391         0.74272
C         25.75645        37.82944         0.34936
C         24.37941        38.36409        -0.02809
C         27.99665         6.20724        -0.33953
C         26.91800         5.61085         0.53535
C         28.01288         7.42331         0.55770
C         26.80057         8.30238         0.43301
C         28.15169        10.38577         0.89614
C         26.83590         9.66660         1.07787
C         28.14029        11.83568         0.89895
C         26.93027        12.58165         0.84426
C         28.18966        14.76211         0.85126
C         26.95719        14.02817         0.77505
C         28.24692        16.15904         0.93936
C         27.04480        16.93693         0.56226
C         28.19675        18.98494         1.48364
C         27.04135        18.45842         0.65785
C         28.18820        20.45933         1.68398
C         26.96128        21.18653         1.21551
C         28.17448        23.33966         1.96440
C         26.95366        22.66209         1.35906
C         28.16732        24.80015         1.58606
C         26.89927        25.46015         1.53512
C         28.12226        27.56250         0.97147
C         26.92552        26.95877         1.66138
C         28.01831        28.90081         0.30292
C         26.82474        29.69849         0.71934
C         28.09510        31.78056         0.12611
C         26.74689        31.10340         0.18671
C         28.06772        33.21567        -0.19894
C         26.82520        34.03547         0.01298
C         28.02213        36.13480        -0.48813
C         26.92406        35.51772         0.03848
C         28.03326        37.57799        -0.74559
C         26.90803        38.32397        -0.50028
C         30.41653         6.30395        -0.82017
C         29.06474         5.62858        -0.91197
C         30.28023         7.80312        -0.47248
C         29.36952         8.11967         0.76801
C         30.65896        10.35219         1.11600
C         29.31856         9.65600         0.87284
C         30.59886        11.83734         0.82740
C         29.40877        12.51782         0.79939
C         30.68655        14.62539         1.16198
C         29.45287        14.01109         0.53795
C         30.69697        16.08693         1.54349
C         29.45834        16.86845         1.30073
C         30.68060        18.98852         1.88332
C         29.46690        18.23510         1.49808
C         30.68650        20.47345         1.68919
C         29.47421        21.19370         1.69244
C         30.67135        23.30205         1.47541
C         29.46856        22.60750         1.65205
C         30.70643        24.81668         1.53718
C         29.35746        25.47672         1.34324
C         30.49125        27.49656         0.36432
C         29.31010        26.86411         0.91899
C         30.49632        28.88497         0.04101
C         29.32530        29.65999         0.24186
C         30.53797        31.79303        -0.30509
C         29.29971        31.08061         0.07007
C         30.55526        33.12982        -0.59877
C         29.37526        33.98104        -0.15289
C         30.43466        36.00882        -1.33156
C         29.20825        35.32001        -0.85803
C         30.41657        37.48656        -1.47173
C         29.25205        38.18498        -1.26324
C         32.38246         6.91627        -2.23084
C         31.28356         6.15056        -2.05516
C         32.71782         7.99460        -1.30903
C         31.69047         8.36318        -0.30688
C         33.07144        10.43614         0.09329
C         31.86111         9.67565         0.41999
C         33.14241        11.82267         0.64401
C         31.84173        12.55526         0.32842
C         33.15177        14.63606         1.04144
C         31.96088        13.97995         0.83549
C         33.17073        16.05210         1.37320
C         32.00590        16.76816         1.56309
C         33.22395        18.98618         1.53882
C         32.02288        18.22494         1.82778
C         33.18644        20.45043         1.57463
C         31.90218        21.17890         1.55847
C         33.08792        23.27971         0.87731
C         31.89353        22.58497         1.35123
C         32.94848        24.64176         0.40653
C         31.77360        25.38295         0.62478
C         32.69816        27.28132        -0.66591
C         31.66118        26.72032         0.15071
C         32.75224        28.69721        -0.93016
C         31.69807        29.49284        -0.48691
C         33.05014        31.69217        -0.88185
C         31.78200        30.97789        -0.41047
C         33.04813        33.15248        -1.17623
C         31.68966        33.79110        -1.39230
C         32.94238        35.99719        -1.66549
C         31.74866        35.30303        -1.04831
C         32.82822        37.40106        -1.98711
C         31.66036        38.10504        -1.87034
C         33.93265         8.63836        -1.31863
C         35.42739        10.54359        -0.58980
C         34.15677         9.86231        -0.57276
C         35.58115        11.86890        -0.14083
C         34.31557        12.66328         0.08853
C         35.63444        14.74961         0.47240
C         34.48389        13.90376         0.96052
C         35.66328        16.07740         0.76579
C         34.49095        16.74856         1.38634
C         35.67219        18.98283         0.84149
C         34.49916        18.27725         1.40711
C         35.54681        20.43831         0.45025
C         34.42059        21.20490         1.10521
C         35.43531        23.23879         0.02751
C         34.28154        22.60323         0.64368
C         35.29275        24.55703        -0.51648
C         33.99405        25.18752        -0.41063
C         35.54425        27.44933        -1.61194
C         33.70816        26.39067        -1.08051
C         35.35169        28.81338        -1.39774
C         33.91859        29.32451        -1.70193
C         35.73622        31.95933        -1.40137
C         33.95625        30.81494        -1.59930
C         35.52229        33.30592        -1.14620
C         34.21019        33.89053        -1.37213
C         34.12502        35.31000        -1.70169
C         36.77542        12.60268        -0.21229
C         37.93879        14.76773        -0.36788
C         36.81928        14.03241        -0.03379
C         37.86833        16.27283        -0.40364
C         36.98036        16.83491         0.71547
C         38.01845        19.07900         0.10589
C         36.82439        18.32966         0.52104
C         38.03573        20.44646         0.18326
C         36.84127        21.21748         0.71095
C         37.84691        23.23331        -0.44969
C         36.70926        22.59801         0.08222
C         37.63668        24.45392        -1.11357
C         36.46429        25.22197        -1.02792
C         37.80391        27.41739        -0.79240
C         36.65047        26.67229        -1.21720
C         37.68565        28.81676        -0.70768
C         36.51064        29.56764        -1.00365
C         36.60882        30.99698        -0.85947
C         39.19693        16.98437        -0.42461
C         40.47960        19.08823        -0.37378
C         39.24311        18.34045        -0.23948
C         40.53216        20.45245        -0.23461
C         39.29721        21.20266         0.07162
C         40.51541        23.39748        -0.52123
C         39.22364        22.68958        -0.21566
C         40.64488        24.76853        -0.59143
C         39.50200        25.61428        -0.89230
C         39.08142        26.81662        -0.40180
C         41.73922        21.22888        -0.39015
C         41.72086        22.59150        -0.46722
O         22.93269        11.31450         1.98189
O         19.97103        33.89030         1.61823
O         18.64636        31.42739         1.57089
O         29.53655        35.33061        -2.28588
O         20.44639        17.17859        -1.19592
O         21.11349         7.88823         1.60626
O         23.96599        18.21007         2.63744
O         11.78889        18.32366        -1.85937
O          9.89590        14.03003        -1.22567
O         26.53427        16.55049        -0.77944
O         34.48519        26.73252        -2.18551
O         18.39229        12.38322        -2.49448
O         22.95900        14.49037        -1.31623
O         14.58842        14.08219        -2.42598
O         14.67042        17.36566         1.35457
O         17.78574        24.18507         2.29056
O         19.16017        15.88018         1.89892
O         27.54675         6.42852         1.64250
O         18.30334        37.22600        -1.40474
O         16.82422         9.84516        -2.69475
O         32.82864        31.34757         0.55414
O         32.19260         8.38058         1.05378
O         34.82925        17.44808         2.62138
O         17.35309        18.63400         2.42198
O         39.38938        22.18763         1.17202
O         34.21425        21.00293         2.51221
O          8.60429        27.37560        -1.47980
O         27.19478        33.51348        -1.35227
O         25.34382        35.94713         1.88138
O         38.67920        25.00325        -1.86775
O         27.88317        19.55903         2.80037
O          7.21758        18.40944        -0.80615
O         21.52796        31.56447        -0.88622
O         22.44629        34.54824        -1.01220
O         19.80043        27.49105         2.22830
O          8.14685        22.88353         1.37800
O         11.04427        31.74658        -1.56133
O         14.90136        30.26058        -2.30442
O         12.23602        33.86035        -1.57819
O         31.33831        18.57284         3.10813
O         19.98934        22.88747         2.71306
O         22.66780        36.30381         2.10732
O         30.53306        15.02645         2.54973
O         27.18492        22.03054         0.04596
O         34.84409        31.37536        -2.42251
O         12.91730        11.97453         0.57359
O         20.72296        18.96156         3.08064
O         12.14259        21.69246         0.78840
O         29.60470        14.21477        -0.91887
H         28.73211        14.05402        -1.33896
O         18.16927        18.83951        -0.94713
H         18.86995        18.15346        -1.17881
O         31.11994        25.15306         2.90631
H         30.49123        24.71512         3.51973
O         29.59873        34.30662         1.24565
H         29.85088        33.48988         1.72482
O         26.80468         9.36664         2.51824
H         25.93903         8.95162         2.72188
O         13.59777        23.12766        -2.19448
H         14.46753        23.49928        -2.45241
O          6.91461        20.75798         2.44065
H          7.27792        21.67298         2.40433
O         27.70920        28.60420        -1.12401
H         27.24858        29.40228        -1.49271
O         27.30568        18.97473        -0.67343
H         26.85929        18.36628        -1.30884
O         37.63287        16.61247         1.98504
H         37.03339        16.96298         2.68177
O         20.92964        36.44297        -1.92452
H         21.35267        35.61812        -2.25656
O         30.88316        10.20695         2.54466
H         31.01453         9.24210         2.70000
O         20.22520        10.65690         1.91257
H         21.05682        10.88015         2.39581
O         11.58272         9.94752        -3.25652
H         11.54282        10.89263        -3.52058
O         31.11046         5.64207         0.26341
H         30.89381         6.12410         1.09896
O         12.82889        36.42113        -1.97654
H         12.55624        35.54738        -2.34309
O         22.94658        33.66986         2.49398
H         22.83119        34.67212         2.59611
O         16.21493        13.97426         0.85593
H         16.87704        14.51543         1.33958
O         28.02623        23.30098         3.41560
H         28.02063        22.36304         3.70529
O         31.93739        35.40841         0.38638
H         32.80115        35.00102         0.60937
O         34.01520        13.20391        -1.22098
H         33.70204        12.47423        -1.79650
O         17.03027        14.91623        -2.63446
H         16.59653        14.29286        -3.25924
O         26.26377        30.99036        -1.19199
H         26.40937        31.88125        -1.61024
O         33.20050        11.70273         2.07376
H         34.03476        11.25590         2.32461
O         33.65148        29.07660        -3.10975
H         34.40631        29.42623        -3.63011
O         19.79788        29.64829        -1.44264
H         20.57438        30.23821        -1.62766
O         10.88685        20.62527        -2.43101
H         10.17438        20.08516        -2.83267
O         34.88184        13.51418         2.29859
H         34.83651        14.30661         2.87392
O         26.23375        31.97553         2.35358
H         25.59262        32.47597         2.90322
O         26.02313        38.41554         1.65789
H         25.59033        37.81537         2.31253
O         31.66039        12.50995        -1.11639
H         30.93046        13.14630        -1.33887
O         13.76329        20.04053        -2.09121
H         12.91508        19.78223        -2.52452
O         36.99819        21.34668         2.13576
H         37.87715        21.76721         2.28995
O          6.32233        20.91756        -1.21469
H          6.26099        19.95987        -1.44152
O         37.17508        16.62780        -1.65063
H         37.62060        16.15723        -2.38609
O         27.10803        27.24827         3.10835
H         27.78512        26.62502         3.45027
O         29.64495         8.47928        -1.58040
H         30.09853         8.20500        -2.40639
O         31.38455        33.57207        -2.78968
H         30.54717        34.06289        -2.99026
O         12.49133        12.60498        -2.74094
H         12.83658        13.51152        -2.94352
O         17.53212        26.54433        -1.66514
H         17.62338        27.42803        -2.08520
O         16.06736        12.12639        -3.54521
H         16.83102        11.56594        -3.81992
O         23.07698        20.56897         3.33365
H         22.30112        20.01906         3.61177
O         29.96570         7.55446         1.95139
H         29.23291         7.25199         2.53370
O         35.25929        20.46327        -0.97327
H         35.93822        19.92507        -1.43338
O         12.98930        19.36048         1.44933
H         13.45002        18.73053         2.05031
O         23.25892         6.43038        -1.84152
H         24.13942         6.81831        -2.03331
O         15.40441        33.19026         1.29900
H         16.20328        32.84702         1.75632
O         19.61121        17.44906         2.86197
H         18.76115        17.64246         3.35123
H          5.99559        18.55724         2.33742
H          4.05664        20.57284         1.43975
H          3.84969        22.92372         0.82737
H          5.09778        25.17720         0.61757
H          7.74354        14.26334         1.34130
H          6.72805        16.08567         1.54051
H          6.32354        27.16940         0.96122
H          7.97363        29.41036         1.12362
H          9.92596         9.96405        -1.24308
H          9.01488        11.65901         0.98162
H          8.99212        31.29832         1.05302
H         10.13218        33.65110         1.11800
H         12.31944         5.88673        -0.85896
H         11.20337         7.87440        -1.51401
H         11.66096        35.87537         1.06160
H         12.39518        38.10201         0.26440
H         14.38646         4.62601        -0.39520
H         14.53206        39.18511         0.68218
H         16.81660         4.53868        -0.20933
H         16.72065        39.34331         0.63723
H         19.31549         4.43015        -0.17614
H         19.45792        39.19496         1.09004
H         21.84706         4.45846        -0.36979
H         21.88167        39.48208         0.41628
H         24.37572         4.42605         0.10309
H         24.34849        39.41503        -0.36075
H         26.93105         4.51838         0.74522
H         26.92205        39.40147        -0.72888
H         29.03002         4.57668        -1.23650
H         29.25123        39.27711        -1.40512
H         33.05693         6.73565        -3.08223
H         31.06156         5.33284        -2.75741
H         33.73940        37.92157        -2.31961
H         31.65532        39.18399        -2.08647
H         34.72295         8.29520        -2.00366
H         36.30213        10.00048        -0.98030
H         36.26923        33.87767        -0.57847
H         35.04703        35.81733        -2.02282
H         37.70361        12.09409        -0.51883
H         38.82964        14.26298        -0.77538
H         38.57719        29.38497        -0.40259
H         37.50912        31.37303        -0.35066
H         40.11466        16.42883        -0.67430
H         41.39801        18.53084        -0.61379
H         41.65220        25.21110        -0.52585
H         39.72088        27.37774         0.29458
H         42.69806        20.69365        -0.45301
H         42.67507        23.12845        -0.57917
