         252
 CSIRO Nanostructure Databank - Neutral Graphene Oxide Data Set
C         30.42155        31.73697         0.87208
C         30.47242        32.96206         0.65343
C         30.47515        36.12293         0.53533
C         30.49338        37.22871         1.09959
C         30.46679        40.37665         1.20189
C         30.32902        41.56474         0.91523
C         32.83944        28.90345         0.70851
C         31.71573        29.47662         0.81500
C         32.79208        31.55646         0.41007
C         31.56299        30.86686         0.71411
C         32.85194        33.08024         0.56714
C         31.53773        33.86105         0.35443
C         32.73124        36.07403        -0.21940
C         31.52150        35.21195         0.20380
C         32.88622        37.40465         0.51724
C         31.70974        38.05866         1.16242
C         32.81125        40.32828         0.59329
C         31.68016        39.56253         1.20533
C         32.70768        41.70360         0.30476
C         31.28880        42.42445         0.15909
C         32.58623        44.35572         0.45175
C         31.45346        43.86125         0.64419
C         35.43364        27.27629         0.09542
C         35.38609        28.71445         0.62282
C         34.09543        29.44874         0.42001
C         35.20073        31.58578        -0.41290
C         34.02153        30.86023         0.25586
C         35.31846        33.05064        -0.06736
C         34.01513        33.74692        -0.13799
C         35.30251        35.93822        -0.17291
C         34.00973        35.23827        -0.30616
C         35.22833        37.45671        -0.33862
C         34.02644        38.14944         0.30339
C         35.18707        40.36656        -0.01952
C         34.02913        39.61409         0.36359
C         35.16141        41.76536        -0.10484
C         33.91353        42.45662         0.08588
C         35.09876        44.70582         0.13120
C         33.88924        43.89584         0.19544
C         35.33749        45.99587         0.80011
C         37.88580        27.26858        -0.39034
C         36.56183        26.82169        -0.17987
C         37.97501        28.71443         0.18647
C         36.61389        29.40479         0.00715
C         37.80606        31.64964        -0.33997
C         36.54407        30.85545        -0.36444
C         37.78532        33.03621        -0.30597
C         36.49974        33.74838        -0.17317
C         37.78580        35.89495         0.03187
C         36.47288        35.21323        -0.11067
C         37.80823        37.39082        -0.02175
C         36.51306        38.16154         0.03726
C         37.68672        40.37475        -0.61051
C         36.49806        39.64800        -0.00018
C         37.70639        41.80984         0.00378
C         36.43743        42.54010        -0.51947
C         37.67634        44.64462         0.54591
C         36.42393        44.02149        -0.11497
C         37.72428        46.18458         0.29421
C         36.37716        46.65693         0.81973
C         40.22914        24.51455        -0.71994
C         39.20239        25.19768        -0.98027
C         40.29898        27.30050        -1.02355
C         38.99537        26.59772        -0.83734
C         40.30021        28.83502        -1.04457
C         39.09571        29.51999        -0.42887
C         40.29665        31.66630        -0.52794
C         39.05572        30.90952        -0.44571
C         40.30940        33.05309        -0.45713
C         39.04525        33.78478        -0.34502
C         40.32790        35.90585         0.15777
C         39.04991        35.15739        -0.18731
C         40.32620        37.38373        -0.14268
C         39.06913        38.09982        -0.39913
C         40.25230        40.34693        -0.02337
C         39.02159        39.60807        -0.55065
C         40.27953        41.86764        -0.21129
C         39.01387        42.59980        -0.10827
C         40.22339        44.63296         0.64615
C         38.98232        43.94481         0.20352
C         40.32788        46.15311         0.91080
C         38.94522        46.87700         0.81188
C         40.24705        48.98905         0.73614
C         39.20427        48.20133         0.78444
C         42.71322        24.55978         0.08790
C         41.51591        25.01672        -0.46467
C         42.80238        27.28031        -0.36312
C         41.60203        26.50932        -0.77319
C         42.77793        28.72881        -0.41938
C         41.60781        29.43907        -0.57395
C         42.84904        31.65329        -0.31035
C         41.56019        30.90272        -0.35803
C         42.83774        33.12224        -0.52263
C         41.56402        33.82118        -0.51357
C         42.75144        36.01007        -0.63176
C         41.55078        35.20993        -0.39808
C         42.83179        37.42929        -0.29490
C         41.58282        38.15691         0.14814
C         42.83954        40.32952        -0.30717
C         41.53038        39.56983        -0.49962
C         42.79953        41.82176        -0.12117
C         41.48371        42.52065        -0.06909
C         42.75364        44.73754         0.18605
C         41.52230        43.92806         0.38644
C         42.70219        46.09839        -0.02697
C         41.34769        46.80655        -0.06565
C         42.72745        48.81208         0.03608
C         41.42671        48.43953         0.24136
C         43.71564        25.25828         0.40773
C         45.09054        27.39944         0.61207
C         43.93019        26.64746         0.21103
C         45.22715        28.76128         0.33564
C         44.14636        29.38156        -0.52161
C         45.35475        31.63453         0.00473
C         44.14687        30.90722        -0.48900
C         45.20833        33.10661         0.24108
C         44.04243        33.78828        -0.38434
C         45.36023        35.97873        -0.26363
C         44.13911        35.22224        -0.59844
C         45.34396        37.40144        -0.28855
C         44.06288        38.12813        -0.24425
C         45.30175        40.26190         0.21381
C         44.05682        39.53565        -0.04040
C         45.31913        41.77033         0.32232
C         44.02602        42.52048         0.42038
C         45.20784        44.57729        -0.43872
C         44.08784        44.06318         0.45317
C         45.10939        46.08417        -0.74786
C         43.93292        46.83500        -0.31002
C         43.81998        48.23359        -0.32611
C         47.39059        27.36176         1.39770
C         46.26067        26.87650         1.25975
C         47.70375        28.75278         1.04055
C         46.43815        29.51054         0.67453
C         47.64522        31.67015         1.15705
C         46.50798        30.88798         0.57677
C         47.70269        33.16233         0.92199
C         46.46481        33.88350         0.46503
C         47.82298        35.93656        -0.14171
C         46.56024        35.29437         0.01817
C         47.82471        37.36958        -0.30793
C         46.58481        38.07097        -0.23056
C         47.83042        40.31573        -0.30126
C         46.59978        39.52491         0.08242
C         47.83564        41.79796        -0.01102
C         46.58523        42.51673        -0.01073
C         47.76021        44.53833        -0.85964
C         46.51266        43.85641        -0.39073
C         47.54798        45.98953        -1.00019
C         46.47457        46.58084        -0.86958
C         50.18966        28.96715         2.03055
C         48.97798        29.46613         1.34468
C         50.24990        31.72692         1.55882
C         48.94159        30.98833         1.53064
C         50.36209        33.21700         1.17810
C         49.01667        33.87421         0.80537
C         50.23346        35.44869        -0.61929
C         49.02671        35.11831        -0.01683
C         50.26696        37.67278        -0.68029
C         49.05316        38.15415        -0.25338
C         50.34351        40.30089         0.37534
C         49.04413        39.56777         0.20976
C         50.34043        41.78632         0.17793
C         49.08759        42.44961        -0.07215
C         50.39475        44.48579        -0.41242
C         49.08445        43.86054        -0.57934
C         51.21913        29.65270         2.13488
C         52.60393        31.78633         1.46550
C         51.43172        31.04976         1.86114
C         52.71175        32.84994         0.83612
C         51.51737        33.45874         0.12343
C         52.48050        35.91365        -0.37682
C         51.52157        34.90141        -0.28715
C         52.53856        37.17495        -0.43064
C         51.56898        38.20490        -0.31238
C         52.68578        40.42594         0.34574
C         51.62967        39.52630         0.17333
C         52.72895        41.68719         0.45752
C         51.58575        42.49926         0.22970
C         51.39612        43.90517         0.04705
O         37.93300        36.69935         1.27941
O         42.20919        31.25284         0.94629
O         50.25043        36.53609        -1.50990
O         44.47148        28.97340        -1.96085
O         46.06387        39.75219         1.40284
O         36.58010        38.94483         1.27579
O         32.00526        38.78428         2.37038
O         35.76887        44.78544        -1.17547
O         48.23332        33.94573         2.04127
O         44.81006        45.06035        -1.75420
O         33.83576        34.32784        -1.46406
O         48.49198        43.89385        -1.91469
O         49.52503        39.85852         1.54079
O         40.90832        43.94276         1.75044
O         47.95885        31.33162         2.55552
O         44.64336        42.02149         1.63410
O         43.07697        41.26357        -1.45804
O         45.45883        33.65867         1.55458
O         45.09108        31.45612        -1.45609
O         41.10725        26.80168        -2.12963
O         43.51130        35.66016        -1.82747
O         48.74228        28.96255         0.02710
O         39.10237        38.77003        -1.72825
O         36.49983        29.78329        -1.38798
O         40.06980        40.29590         1.42609
H         40.64132        39.57852         1.81453
O         40.82642        46.38148         2.21988
H         40.90136        45.51570         2.68565
O         45.89955        29.00258        -2.14443
H         46.06959        29.96272        -2.33118
O         37.73823        46.37445        -1.11421
H         37.79742        47.33213        -1.31233
O         37.52963        41.66724         1.43753
H         38.30235        41.15180         1.78164
O         34.80335        31.62808        -1.81081
H         35.15002        30.80913        -2.23696
O         37.53620        44.44536         1.96758
H         37.54325        43.46888         2.13385
O         33.16492        33.28570         1.97692
H         32.43024        32.91472         2.51197
O         35.61084        28.65170         2.04028
H         34.83744        28.21479         2.45758
O         41.44538        39.33245        -1.90981
H         41.86520        40.09317        -2.37206
O         35.08747        37.64329        -1.77440
H         34.18452        37.32560        -2.02585
O         44.45365        44.48703         1.78772
H         44.65732        43.67358         2.31315
O         30.97961        42.43518        -1.20511
H         30.10412        42.85187        -1.34042
O         36.48689        42.56015        -1.95426
H         35.96109        43.34098        -2.25164
O         38.30136        28.57198         1.58134
H         37.47139        28.36286         2.07430
O         51.22417        32.67500        -1.02848
H         51.91505        32.82452        -1.70710
O         47.87851        40.21882        -1.76014
H         48.37265        40.98581        -2.12126
O         40.23645        29.21365        -2.45486
H         40.78448        28.56044        -2.95056
O         50.80474        33.92852         2.34433
H         50.04453        33.97236         2.96734
O         41.71157        38.28367         1.61940
H         41.47062        37.39222         1.98632
O         40.45973        35.81133         1.64282
H         39.57421        36.08615         1.99561
O         37.33234        40.38500        -1.99856
H         38.08370        40.71251        -2.53299
O         32.46141        36.49168        -1.59257
H         32.53286        35.68240        -2.15202
O         40.82446        46.71206        -1.38321
H         41.50970        46.99232        -2.02571
