         210
 CSIRO Nanostructure Databank - Neutral Graphene Oxide Data Set
C         30.41438        31.64913         0.27537
C         30.48037        32.88660         0.46270
C         30.44455        36.00313         0.73874
C         30.47313        37.25667         0.78697
C         30.47920        40.38820         0.93701
C         30.42050        41.64372         0.91472
C         32.82591        28.91976        -0.39589
C         31.71239        29.46224        -0.20979
C         32.80990        31.59458         0.01216
C         31.56514        30.85579         0.02132
C         32.81934        33.03309         0.23840
C         31.59007        33.75709         0.47537
C         32.80134        35.91677         0.54343
C         31.58089        35.16319         0.59954
C         32.81621        37.35660         0.57370
C         31.58671        38.11161         0.70127
C         32.78615        40.28507         0.58511
C         31.59202        39.53583         0.75533
C         32.79434        41.70724         0.56145
C         31.54955        42.45840         0.67886
C         32.80394        44.38331         0.17485
C         31.70817        43.85410         0.46723
C         35.53613        27.43644        -0.89226
C         35.34935        28.81612        -0.61164
C         34.12303        29.47973        -0.40137
C         35.30988        31.60397        -0.17449
C         34.07166        30.90529        -0.19235
C         35.30778        33.11427        -0.21678
C         34.02436        33.77833         0.22687
C         35.25485        35.94022         0.50299
C         34.03207        35.19686         0.41985
C         35.27423        37.35358         0.53638
C         34.04611        38.06208         0.49274
C         35.27406        40.24803         0.84565
C         34.06551        39.54999         0.21222
C         35.30315        41.70307         0.41474
C         34.06368        42.39557         0.33898
C         35.30829        44.44350        -0.23816
C         34.09441        43.80560         0.06912
C         35.50439        45.81373        -0.61108
C         37.91960        27.43508        -1.02887
C         36.62739        26.85615        -1.08189
C         37.85651        28.84045        -0.74102
C         36.59982        29.52062        -0.54313
C         37.81097        31.63966        -0.11246
C         36.55373        30.93311        -0.28822
C         37.81687        33.02472         0.27059
C         36.52299        33.70073         0.46767
C         37.78637        35.91827         0.71239
C         36.50816        35.19568         0.70699
C         37.76903        37.35237         0.69928
C         36.55168        38.07642         0.62104
C         37.78566        40.22934         0.57815
C         36.57341        39.50402         0.61141
C         37.80213        41.66262         0.37774
C         36.53041        42.36686         0.20607
C         37.82276        44.40252        -0.50923
C         36.53500        43.73530        -0.19190
C         37.86780        45.90175        -0.86028
C         36.53080        46.49736        -0.73450
C         40.46135        24.80546        -1.75671
C         39.37863        25.42802        -1.55705
C         40.41132        27.48407        -1.11048
C         39.16003        26.77377        -1.22933
C         40.36601        28.87337        -0.76952
C         39.09020        29.56004        -0.60982
C         40.28590        31.60456         0.13084
C         39.02869        30.93070        -0.25091
C         40.28028        33.03481         0.59111
C         38.98697        33.75479         0.55722
C         40.24574        35.87219         1.15561
C         38.97602        35.16735         0.74476
C         40.21292        37.35532         0.87502
C         39.02974        38.07003         0.79838
C         40.23227        40.25077         0.85109
C         39.03874        39.52853         0.73295
C         40.26904        41.67616         0.60151
C         39.02051        42.36878         0.33108
C         40.23254        44.53974         0.09956
C         39.06949        43.78249        -0.00693
C         40.29613        45.98469        -0.13534
C         39.09923        46.66213        -0.60604
C         40.12894        48.78192        -1.53358
C         39.29512        47.97488        -0.94842
C         43.05884        24.94065        -1.86182
C         41.72079        25.40339        -1.67273
C         42.88397        27.59287        -1.22570
C         41.67724        26.83454        -1.34285
C         42.85452        28.93830        -0.79592
C         41.59083        29.56490        -0.61395
C         42.83624        31.75182        -0.12948
C         41.55679        31.01647        -0.38259
C         42.77916        33.12497         0.40833
C         41.55673        33.79663         0.56683
C         42.75433        35.89921         0.73182
C         41.54166        35.19388         0.75382
C         42.72486        37.38880         0.53230
C         41.48887        38.04858         1.10637
C         42.79858        40.26408         1.11283
C         41.48330        39.54610         1.18341
C         42.77611        41.74815         0.91123
C         41.46888        42.38557         0.60914
C         42.80415        44.57169         0.43452
C         41.47026        43.85710         0.53511
C         42.86996        46.08531         0.22788
C         41.48764        46.70001         0.09958
C         42.65407        48.55188        -1.59783
C         41.40137        48.73580        -0.96201
C         44.11358        25.57716        -1.73861
C         45.29217        27.52178        -0.62028
C         44.28243        27.06406        -1.62556
C         45.28863        28.87314        -0.15719
C         44.08887        29.64212        -0.40380
C         45.26705        31.62418         0.50498
C         44.08147        30.97538         0.00243
C         45.24639        33.05967         0.64406
C         44.01002        33.79837         0.58051
C         45.24508        35.93348         0.74557
C         43.99631        35.21509         0.69785
C         45.24366        37.37166         0.73156
C         44.02741        38.10403         0.78844
C         45.26187        40.21984         0.63883
C         44.04351        39.50439         0.84100
C         45.23363        41.64521         0.37095
C         44.02682        42.39462         0.44660
C         45.14418        44.35164        -0.49707
C         44.01678        43.76237         0.13870
C         45.01331        45.72014        -1.04048
C         43.88293        46.47462        -0.88343
C         43.59515        47.75935        -1.40125
C         47.17315        27.15220         0.84015
C         46.30422        26.79922        -0.01566
C         47.22654        28.47394         1.31113
C         46.33630        29.40934         0.68243
C         47.64307        31.59309         1.17583
C         46.43028        30.86667         0.83665
C         47.65982        33.02922         1.05587
C         46.45052        33.76791         0.85226
C         47.70336        35.93870         0.86016
C         46.46019        35.21450         0.82302
C         47.69959        37.35012         0.77906
C         46.48151        38.07918         0.69390
C         47.72279        40.21116         0.31629
C         46.48414        39.50702         0.55487
C         47.70363        41.60701        -0.00109
C         46.41749        42.29646        -0.07268
C         47.60985        44.07199        -1.36713
C         46.32918        43.59628        -0.62667
C         47.33117        45.49327        -1.75801
C         46.22878        46.04775        -1.73228
C         50.21716        28.87579         1.13797
C         49.11520        29.53522         1.67729
C         50.05017        31.75922         1.71978
C         48.88978        30.97105         1.55928
C         50.12391        33.07665         1.19731
C         48.89706        33.76136         1.03670
C         50.19239        35.83452         0.76105
C         48.93815        35.19260         0.88461
C         50.26602        37.31506         0.80910
C         48.95484        38.11701         0.85113
C         50.18225        40.21170         0.16029
C         48.96083        39.53307         0.41408
C         50.16594        41.62120        -0.16148
C         48.91133        42.30724        -0.18870
C         50.11323        44.30065        -0.87632
C         48.76802        43.85138        -0.39624
C         51.21093        29.53472         0.57331
C         52.33017        31.48123         0.21310
C         52.28554        30.14032         0.07290
C         52.40337        32.77489         0.26835
C         51.37343        33.63834         0.71798
C         52.45299        35.89270         0.16758
C         51.38291        35.04820         0.54270
C         52.50872        37.14624         0.05372
C         51.46407        38.04771         0.32010
C         52.50545        40.28051        -0.18733
C         51.42916        39.44553         0.14555
C         52.55195        41.51432        -0.45360
C         51.41145        42.32175        -0.49514
C         51.19202        43.69872        -0.80292
O         37.94934        44.90853        -1.89880
O         41.44729        48.07447         0.37505
O         36.34607        34.20571         1.81340
O         48.08740        28.83561         2.32951
O         42.91780        41.17879         2.26176
O         42.20839        31.74344        -1.48408
O         42.18355        44.37183         1.74776
O         41.50435        38.70255         2.40263
O         40.32767        31.92571         1.56570
O         49.74324        37.87678         2.05918
O         44.62855        27.62439        -2.88967
H         43.98452        27.31663        -3.56030
O         48.43591        44.46232         0.83472
H         49.19047        44.38341         1.45344
O         51.11082        31.31174         2.42370
H         50.95636        30.39974         2.74775
O         34.23101        39.68723        -1.22787
H         33.47968        39.24139        -1.67187
O         42.51326        37.56013        -0.92306
H         43.19828        37.03609        -1.39115
O         47.83171        43.26045        -2.50818
H         47.16512        43.47844        -3.19116
O         35.48653        33.47569        -1.63304
H         34.75299        33.07157        -2.14340
O         43.48554        46.63168         1.41778
H         43.03704        46.21797         2.18902
O         40.27627        35.79230         2.62481
H         39.44986        36.19250         2.96995
O         35.04680        40.21955         2.28210
H         35.82204        40.62112         2.72730
