         420
 CSIRO Nanostructure Databank - Neutral Graphene Oxide Data Set
C         27.91609        27.43468         0.62311
C         27.86433        28.90110         0.27983
C         26.64723        29.61351         0.80440
C         27.91639        31.73094         1.25762
C         26.66192        30.90278         1.15910
C         27.93654        33.02571         0.41325
C         26.67412        33.83716         0.48267
C         27.92049        35.93753         0.71704
C         26.68976        35.18659         0.56571
C         27.90582        37.39823         0.74131
C         26.69384        38.12977         0.86157
C         27.88550        40.25189         0.66201
C         26.68592        39.50822         0.81129
C         27.88093        41.68745         0.52113
C         26.65920        42.41990         0.39481
C         27.88480        44.46994        -0.07327
C         26.65792        43.75988         0.10253
C         27.89777        45.81166        -0.52587
C         30.35628        27.44974         0.36801
C         29.09072        26.76518         0.56956
C         30.38249        28.86081         0.49306
C         29.15621        29.59563         0.64588
C         30.40578        31.67853         0.96787
C         29.17624        30.95148         0.92534
C         30.36278        33.11021         1.04549
C         29.17178        33.82046         0.81228
C         30.36469        36.05271         1.21139
C         29.12808        35.24076         0.86137
C         30.38524        37.34617         0.39943
C         29.11092        38.12085         0.62678
C         30.36843        40.26159         0.56782
C         29.12010        39.53604         0.60322
C         30.34519        41.65892         0.56090
C         29.11437        42.38653         0.45243
C         30.33320        44.52243        -0.01340
C         29.11789        43.80026         0.16605
C         30.33150        45.82546        -0.52434
C         29.09405        46.45464        -0.79152
C         32.75712        24.67324        -0.45882
C         31.59090        25.33301        -0.10153
C         32.81296        27.44723         0.01999
C         31.57654        26.73383         0.11662
C         32.83999        28.86491         0.25544
C         31.62979        29.56264         0.52345
C         32.88447        31.65662         0.79615
C         31.64528        30.97192         0.78653
C         32.93065        33.07895         1.17405
C         31.61726        33.84644         1.29572
C         32.85125        35.96289         0.84973
C         31.65943        35.29432         1.06050
C         32.86621        37.42154         0.70020
C         31.65678        38.13426         0.62647
C         32.87319        40.26459         0.65112
C         31.63819        39.54942         0.61238
C         32.89573        41.69675         0.63888
C         31.60656        42.40927         0.70718
C         32.88211        44.55167         0.10566
C         31.59941        43.89010         0.40397
C         32.88223        45.87117        -0.33485
C         31.63331        46.48474        -0.94199
C         32.82202        48.65863        -0.84972
C         31.65067        47.98611        -0.82464
C         35.25543        23.17811        -1.11114
C         35.21033        24.68535        -1.17369
C         33.97777        25.36106        -0.58709
C         35.27086        27.47519        -0.38935
C         34.01084        26.74818        -0.31762
C         35.28925        28.90886        -0.15183
C         34.07148        29.58698         0.18354
C         35.33170        31.71546         0.45771
C         34.08817        30.98824         0.45927
C         35.36590        33.12866         0.64196
C         34.13496        33.86036         0.85256
C         35.34688        35.96389         0.32127
C         34.09790        35.23538         0.75927
C         35.35286        37.42633         0.66340
C         34.11094        38.12396         0.68354
C         35.34602        40.25823         0.65251
C         34.10865        39.55046         0.67116
C         35.34915        41.68913         0.60117
C         34.09644        42.41335         0.58915
C         35.31830        44.56192         0.27673
C         34.10766        43.85963         0.37643
C         35.33954        45.94777        -0.05891
C         34.10850        46.59991        -0.38474
C         35.32933        48.66895        -0.90692
C         34.10132        47.98060        -0.74292
C         35.36642        49.92672        -1.60044
C         37.73148        23.07288        -0.65652
C         36.38846        22.47414        -0.99372
C         37.67015        24.60149        -0.63939
C         36.49732        25.31613        -0.68602
C         37.72129        27.50257        -0.65461
C         36.46040        26.76239        -0.53722
C         37.75349        29.00540        -0.52198
C         36.49249        29.64804        -0.15965
C         37.79811        31.71934         0.27075
C         36.54237        31.02485         0.19701
C         37.82172        33.09613         0.58367
C         36.59255        33.81709         0.68336
C         37.79204        35.94582         0.94715
C         36.61520        35.26225         0.73304
C         37.83342        37.39790         0.87438
C         36.57389        38.11207         0.73327
C         37.81656        40.24768         0.64680
C         36.58028        39.54691         0.70395
C         37.80529        41.66325         0.51126
C         36.57640        42.36885         0.53217
C         37.77152        44.45234        -0.15429
C         36.61095        43.87331         0.64936
C         37.79981        45.94202         0.09410
C         36.57387        46.69661        -0.06790
C         37.76560        48.85125        -0.68909
C         36.56235        48.06797        -0.48529
C         37.80101        49.97715        -1.56290
C         36.54143        50.50865        -1.99435
C         40.21783        20.41122        -1.71178
C         39.03310        21.09001        -1.75590
C         40.21312        23.22237        -1.15450
C         38.89766        22.58578        -1.62120
C         40.16529        24.70725        -1.02150
C         38.96076        25.30187        -0.41928
C         40.24294        27.56515        -0.62329
C         38.99412        26.80688        -0.39282
C         40.25882        28.96888        -0.39263
C         39.03936        29.66582        -0.22713
C         40.29318        31.72208         0.21886
C         39.04640        31.03537         0.09303
C         40.27764        33.11492         0.56925
C         39.06405        33.77499         0.76180
C         40.31078        35.89795         1.37023
C         38.99196        35.13470         1.41989
C         40.31551        37.39116         1.21789
C         39.03414        38.10628         0.96026
C         40.28238        40.24573         0.71367
C         39.06689        39.53652         0.76911
C         40.29447        41.65476         0.50844
C         39.06122        42.37325         0.39794
C         40.30178        44.47353         0.19251
C         39.07586        43.76589         0.19671
C         40.30148        45.90772         0.22361
C         39.00098        46.49490         0.46916
C         40.24636        48.89482        -0.53729
C         38.98949        48.50874        -0.06948
C         40.26920        50.03523        -1.37288
C         39.06138        50.58560        -1.88220
C         40.32015        52.21247        -3.25911
C         39.14817        51.64462        -2.87180
C         42.67865        20.30372        -1.22876
C         41.49212        21.02194        -1.44735
C         42.85348        23.10347        -1.09328
C         41.51557        22.46787        -1.17712
C         43.04124        24.45225        -1.39571
C         41.19193        25.52695        -1.38301
C         42.72133        27.49362        -0.81376
C         41.41526        26.88112        -0.93189
C         42.74216        28.89046        -0.49813
C         41.51982        29.63562        -0.30889
C         42.77431        31.71955         0.17741
C         41.52476        31.02419         0.02013
C         42.78016        33.09218         0.50311
C         41.54268        33.82837         0.70818
C         42.84451        35.92977         1.23963
C         41.55885        35.16843         1.03907
C         42.78110        37.39003         0.81862
C         41.59154        38.07426         0.87697
C         42.80178        40.23353         0.41983
C         41.59552        39.57467         1.03781
C         42.77239        41.63904         0.25063
C         41.53127        42.35945         0.36205
C         42.76076        44.51262         0.07048
C         41.54337        43.77103         0.21820
C         42.72856        45.93489        -0.03327
C         41.48745        46.65827         0.07545
C         42.78508        48.81833        -0.46097
C         41.48025        48.16445        -0.07390
C         42.80499        50.09001        -1.22516
C         41.54004        50.75772        -1.54677
C         42.88313        52.27780        -3.10013
C         41.57202        51.94076        -2.53886
C         43.87096        20.90985        -0.80664
C         45.19684        23.04492        -0.42217
C         43.99614        22.32843        -0.70396
C         45.16484        24.52284        -0.31590
C         44.02040        25.28699        -0.81829
C         45.20088        27.43817        -0.61607
C         43.95877        26.72556        -0.78033
C         45.21635        28.86818        -0.50217
C         43.98954        29.58657        -0.35965
C         45.24955        31.63572         0.11506
C         44.01272        30.98294        -0.03297
C         45.28508        33.01574         0.71355
C         44.01750        33.81058         0.59011
C         45.27897        35.93116         0.58260
C         44.05596        35.19239         0.74003
C         45.26291        37.35799         0.49056
C         44.03394        38.08632         0.57208
C         45.23224        40.16687        -0.03838
C         44.02042        39.49053         0.31618
C         45.11827        41.58227        -0.57559
C         43.95483        42.36391        -0.05868
C         45.24769        44.46882        -0.24962
C         43.99418        43.77511        -0.09165
C         45.23257        45.89675        -0.23923
C         43.98440        46.62441        -0.24319
C         45.23556        48.69172        -0.72208
C         44.01046        48.00044        -0.51506
C         45.25961        50.04700        -1.17645
C         44.00366        50.65581        -1.62210
C         44.02016        51.74403        -2.57875
C         47.65228        23.06895        -0.31666
C         46.46030        22.40614        -0.19959
C         47.67987        24.47543        -0.76308
C         46.50007        25.30331        -0.39961
C         47.66407        27.44867        -0.84616
C         46.44892        26.74619        -0.68766
C         47.69661        28.85640        -0.64193
C         46.46709        29.55830        -0.43059
C         47.72290        31.65254         0.00179
C         46.47801        30.95600        -0.11400
C         47.71890        33.08980         0.20796
C         46.51698        33.79648         0.36683
C         47.73045        35.93656         0.23925
C         46.50542        35.21662         0.40508
C         47.70323        37.34800         0.09483
C         46.48938        38.05949         0.20580
C         47.65572        40.17585        -0.48227
C         46.45800        39.48051        -0.05116
C         47.50799        41.49013        -0.90975
C         46.41393        42.34391        -0.57778
C         47.75509        44.50089        -0.28178
C         46.49356        43.75099        -0.43138
C         47.70914        45.92687        -0.06211
C         46.44993        46.62169        -0.20024
C         47.64098        48.80852        -0.24988
C         46.45084        48.03763        -0.38188
C         47.63804        50.13727        -0.65510
C         46.47402        50.73235        -1.18168
C         50.24561        24.56380        -1.10779
C         48.94089        25.21817        -1.19096
C         50.23612        27.44803        -0.94798
C         48.91303        26.72269        -1.16287
C         50.18902        28.85724        -0.52037
C         48.95558        29.54576        -0.48081
C         50.19369        31.61608         0.02658
C         48.95105        30.95055        -0.16454
C         50.17925        33.03130         0.41908
C         48.94404        33.81269         0.27754
C         50.22185        35.95714         0.34221
C         48.96868        35.21266         0.25782
C         50.21155        37.34630         0.19717
C         48.97823        38.03778        -0.23601
C         50.37959        40.29048        -0.46101
C         48.99929        39.50414        -0.54664
C         50.24884        41.73943        -0.00389
C         49.32971        42.55532        -0.59222
C         50.17891        44.62117         0.30417
C         49.03569        43.90721        -0.17938
C         50.12405        46.04107         0.43482
C         48.87248        46.67719         0.21714
C         50.08182        48.86649         0.49668
C         48.75756        48.15461         0.52922
C         51.40464        25.24759        -0.85641
C         52.66761        27.35783        -0.41100
C         51.46459        26.66614        -0.70253
C         52.66118        28.79270        -0.27903
C         51.42428        29.51044        -0.26529
C         52.68444        31.61726         0.01355
C         51.42917        30.92578        -0.03189
C         52.68042        33.08072        -0.03499
C         51.47747        33.78943         0.45474
C         52.70100        35.92573         0.53005
C         51.47153        35.26041         0.43423
C         52.69536        37.34051         0.89694
C         51.37010        38.12044         0.61449
C         52.61793        40.22182         0.74792
C         51.47597        39.57220         0.36924
C         52.59398        41.69337         0.95572
C         51.31749        42.43952         0.73394
C         52.53273        44.62637         1.00240
C         51.36055        43.91881         0.63265
C         52.51303        46.06456         1.05477
C         51.30884        46.76502         0.76493
C         51.24571        48.21345         0.70677
C         55.09996        27.35486        -0.14471
C         53.91964        26.67115        -0.28969
C         55.12150        28.78000        -0.09304
C         53.89600        29.49744        -0.13327
C         55.17671        31.64316         0.02356
C         53.91476        30.93553        -0.05797
C         55.22840        33.06745         0.14194
C         53.99867        33.85042        -0.01048
C         55.17605        35.94812         0.61015
C         53.96304        35.26567         0.40221
C         55.16872        37.40231         0.82006
C         53.94656        38.07875         0.94562
C         55.14774        40.27055         1.15242
C         53.84427        39.52579         1.36333
C         55.16439        41.75761         1.10660
C         53.85236        42.48436         0.92727
C         54.93857        44.62290         1.54334
C         53.76665        43.93028         1.21730
C         54.88295        46.04501         1.67460
C         53.72437        46.73678         1.41831
C         56.34962        29.49232        -0.00072
C         56.37424        30.86786         0.04701
C         56.39763        33.80724         0.44646
C         56.38129        35.18641         0.60815
C         56.36675        38.16074         0.87843
C         56.32335        39.56649         0.98231
C         56.26970        42.54971         1.66579
C         56.16337        43.89683         1.81284
O         32.34689        33.38398         2.48896
O         31.55106        43.40399         1.79545
O         39.06491        26.02782         0.85622
O         40.70598        22.68987         0.12989
O         42.12956        25.01859        -2.28632
O         53.24289        33.62260        -1.26627
O         51.70786        41.99076         2.09293
O         54.69911        42.20761        -0.23775
O         51.77511        37.71670         1.97949
O         40.41606        36.76428         2.57623
O         48.02961        24.64050        -2.18775
O         49.05445        38.52742        -1.65503
O         38.96714        47.74444         1.10018
O         48.55786        42.05057        -1.63924
O         42.24662        48.90830         0.92256
O         50.91913        33.25233         1.69519
O         37.76862        28.34689        -1.85085
O         41.47043        52.14866        -1.09624
O         49.65308        27.27275        -2.29785
O         45.86896        25.01216         0.87233
O         38.55577        23.13908        -2.91879
H         39.15111        22.74700        -3.59113
O         35.31831        35.91332        -1.15678
H         36.09541        36.41595        -1.48171
O         44.79827        41.37780        -2.02565
H         44.80381        42.26399        -2.44744
O         37.49788        44.17908        -1.55398
H         38.26541        44.48121        -2.08195
O         28.01823        32.16660         2.63912
H         28.08237        31.37094         3.20691
O         53.61478        39.54458         2.81591
H         52.81782        38.97994         2.97217
O         28.09714        32.61107        -0.97085
H         28.10431        33.41623        -1.52919
O         27.76315        28.96519        -1.18418
H         28.58297        28.57125        -1.55070
O         45.39530        32.77379         2.17718
H         45.26569        33.63769         2.62617
O         36.88118        44.17994         2.04605
H         36.12804        43.85330         2.58137
O         38.03104        22.62773         0.67586
H         38.98565        22.78244         0.86586
O         31.73441        46.19248        -2.38579
H         32.55184        46.62675        -2.71095
O         30.39413        36.94023        -1.00360
H         30.45473        37.75019        -1.55195
O         48.30935        48.22866         1.93473
H         48.98909        47.77921         2.48061
O         35.14715        25.00883        -2.60527
H         35.96084        24.65214        -3.02226
O         30.26112        36.42438         2.61182
H         30.34945        35.60954         3.15005
O         41.75796        39.78596         2.49661
H         42.56019        39.29421         2.77568
O         50.90134        40.31851        -1.80494
H         50.46324        39.58697        -2.30242
O         43.04524        36.00643         2.70239
H         42.18969        36.34229         3.07175
O         38.73126        34.83019         2.82328
H         39.04938        35.60786         3.33830
H         26.97291        26.89145         0.78455
H         25.69881        29.05304         0.80681
H         25.73332        31.37926         1.51196
H         25.71903        33.30982         0.34156
H         25.73616        35.73154         0.52272
H         25.74044        37.60242         0.99777
H         25.72363        40.02947         0.89919
H         25.69793        41.89765         0.48886
H         25.70778        44.29557        -0.03661
H         26.94269        46.32193        -0.71670
H         29.09734        25.67681         0.72543
H         29.07281        47.46995        -1.21004
H         32.71024        23.59410        -0.65800
H         30.65932        24.75599        -0.03006
H         32.81128        49.75838        -0.85422
H         30.70488        48.54558        -0.84440
H         34.32181        22.63563        -1.32732
H         34.41836        50.38270        -1.91793
H         36.33772        21.37414        -1.02320
H         36.50875        51.42309        -2.60158
H         40.20154        19.31854        -1.85129
H         38.11324        20.52318        -1.96541
H         40.34364        52.90723        -4.11179
H         38.23073        51.92639        -3.40757
H         42.66042        19.20977        -1.34894
H         42.93277        52.97401        -3.95056
H         44.73993        20.27236        -0.59306
H         44.99299        52.05251        -2.98806
H         48.59754        22.51594        -0.22793
H         46.47482        21.32466         0.00125
H         48.54596        50.75002        -0.56887
H         46.51635        51.77757        -1.51787
H         50.28088        23.47776        -1.26968
H         50.08366        49.96524         0.45806
H         52.33377        24.66603        -0.78461
H         52.17853        48.79043         0.77983
H         56.05097        26.80651        -0.08092
H         53.94684        25.57492        -0.34265
H         55.79657        46.58864         1.95576
H         53.73169        47.83203         1.50121
H         57.29149        28.92529         0.02082
H         57.34566        31.37794         0.09833
H         57.36142        33.28819         0.54270
H         57.33617        35.69373         0.80088
H         57.34250        37.67077         0.76890
H         57.26964        40.12114         0.89393
H         57.17939        42.02931         1.99929
H         57.01641        44.46832         2.20863
