         204
 CSIRO Nanostructure Databank - Neutral Graphene Oxide Data Set
C        -11.15205         0.69340        -0.26960
C         -9.96160         1.47312        -0.02350
C         -8.76959         0.75742         0.46285
C         -7.47013         1.44654         0.47534
C         -6.29718         0.70296         0.59480
C         -5.02461         1.42368         0.78027
C         -3.76407         0.74680         0.40034
C         -2.49222         1.46029         0.58275
C         -1.31604         0.72298         0.55022
C         -0.05360         1.44274         0.27960
C          1.22729         0.69437         0.20680
C          2.55010         1.43655         0.09715
C          3.68199         0.71927         0.80792
C          4.97518         1.48617         0.83242
C          6.22360         0.72502         0.65737
C          7.41488         1.43633         0.37144
C          8.63958         0.71128         0.22329
C          9.85511         1.43459        -0.08577
C         11.06165         0.66436        -0.35753
C         -9.88613         2.83771        -0.22963
C         -8.66404         3.57340        -0.05207
C         -7.45165         2.88203         0.28435
C         -6.24125         3.61080         0.33268
C         -4.98710         2.93937         0.68811
C         -3.69814         3.60916         0.42574
C         -2.49081         2.90283         0.51302
C         -1.23238         3.60938         0.43002
C         -0.02262         2.91231         0.38529
C          1.24497         3.58704         0.45883
C          2.45649         2.90937         0.44192
C          3.71835         3.61682         0.45927
C          4.93851         2.92296         0.48264
C          6.17755         3.60031         0.26989
C          7.40120         2.86805         0.22313
C          8.62238         3.56413        -0.04489
C          9.83592         2.81003        -0.19530
C         -8.62573         4.97743        -0.23699
C         -7.42066         5.69146        -0.23257
C         -6.18837         4.98035        -0.03544
C         -4.93640         5.65237        -0.16378
C         -3.71089         5.00187         0.08339
C         -2.46846         5.72047         0.02170
C         -1.24094         5.05474         0.28559
C         -0.02636         5.76794         0.31622
C          1.23188         5.06989         0.77334
C          2.49762         5.76521         0.33345
C          3.70894         5.05267         0.30828
C          4.94891         5.73763         0.09776
C          6.17516         5.01279         0.07012
C          7.41157         5.70653        -0.14601
C          8.61188         4.96362        -0.20428
C         -7.36856         7.13847        -0.30594
C         -6.18215         7.80681        -0.45056
C         -4.93210         7.01984        -0.79028
C         -3.65595         7.78815        -0.58098
C         -2.46712         7.13713        -0.25192
C         -1.21630         7.85401        -0.21107
C         -0.00695         7.16951         0.05739
C          1.24640         7.87938         0.01811
C          2.48409         7.16782         0.10675
C          3.71935         7.86167        -0.08264
C          4.94647         7.14920        -0.07951
C          6.19457         7.84073        -0.27578
C          7.38917         7.12302        -0.30929
C         -6.08695         9.25352        -0.39011
C         -4.93352         9.92345        -0.60953
C         -3.66604         9.22166        -1.03669
C         -2.40991         9.95735        -0.69308
C         -1.21372         9.28649        -0.42533
C          0.03062         9.97866        -0.36740
C          1.25203         9.29174        -0.20726
C          2.50348         9.97654        -0.30977
C          3.71311         9.28765        -0.27360
C          4.98021         9.96145        -0.43936
C          6.15860         9.27419        -0.44394
C        -11.15959        -0.67501        -0.31541
C         -9.96564        -1.48060        -0.14909
C         -8.76575        -0.78078         0.37344
C         -7.46667        -1.43735         0.30708
C         -6.28268        -0.74249         0.49648
C         -5.02483        -1.49443         0.46130
C         -3.76693        -0.75745         0.26192
C         -2.49367        -1.45375         0.47195
C         -1.31906        -0.71304         0.56297
C         -0.05919        -1.43017         0.85257
C          1.24554        -0.69678         0.75249
C          2.50282        -1.46771         0.70191
C          3.72593        -0.75417         0.73687
C          4.97642        -1.44066         0.75198
C          6.20758        -0.69005         0.64580
C          7.42948        -1.40942         0.46048
C          8.64759        -0.69172         0.31983
C          9.94995        -1.45536         0.35439
C         11.10423        -0.67430        -0.21269
C         -9.92683        -2.82265        -0.43047
C         -8.67111        -3.60229        -0.38630
C         -7.40522        -2.87489        -0.04226
C         -6.27201        -3.64581         0.60222
C         -4.97908        -2.87302         0.48583
C         -3.72400        -3.59544         0.45776
C         -2.49750        -2.88788         0.53934
C         -1.25406        -3.59969         0.60143
C         -0.02875        -2.89760         0.74575
C          1.21012        -3.57922         0.77274
C          2.45349        -2.86108         0.80846
C          3.72773        -3.59298         1.12292
C          4.99143        -2.85593         0.75060
C          6.19768        -3.57102         0.48642
C          7.40140        -2.83511         0.31354
C          8.59942        -3.51482        -0.13840
C          9.80403        -2.83338        -0.22841
C         -8.63700        -5.06940        -0.28653
C         -7.42466        -5.75870        -0.17378
C         -6.18724        -5.06716         0.11080
C         -4.96299        -5.73633         0.12257
C         -3.71683        -5.01886         0.33910
C         -2.48385        -5.72303         0.33249
C         -1.25000        -5.01990         0.49408
C         -0.00208        -5.71908         0.50606
C          1.21827        -5.01357         0.66492
C          2.47129        -5.71822         0.60312
C          3.70391        -5.02637         0.68633
C          4.93431        -5.70813         0.53434
C          6.17817        -5.00845         0.29926
C          7.30719        -5.62157        -0.36646
C          8.46453        -4.87150        -0.57532
C         -7.36199        -7.17980        -0.36674
C         -6.15325        -7.86186        -0.35977
C         -4.91633        -7.15511        -0.12695
C         -3.69150        -7.84611        -0.11748
C         -2.45855        -7.14994         0.13222
C         -1.23537        -7.84753         0.14854
C          0.00189        -7.14745         0.34366
C          1.22829        -7.83980         0.31080
C          2.44978        -7.13380         0.37319
C          3.69182        -7.84473         0.27626
C          4.85983        -7.13179         0.51675
C          6.52980        -7.98698        -0.56808
C          7.24532        -6.92981        -1.04245
C         -6.09317        -9.28652        -0.60102
C         -4.90632        -9.95275        -0.61727
C         -3.65556        -9.26815        -0.37719
C         -2.44695        -9.94437        -0.39607
C         -1.20183        -9.27985        -0.11346
C         -0.01083        -9.97736        -0.08841
C          1.27073        -9.34901         0.37569
C          2.51290        -9.90055        -0.28443
C          3.70256        -9.22170        -0.23895
C          4.85555        -9.77169        -0.96399
C          6.07113        -9.20688        -1.21671
O         -4.99948         6.78329        -2.25061
H         -4.76877         7.65030        -2.67419
O         10.27651        -1.66577         1.78401
H          9.52869        -2.16306         2.17939
O          0.47501         0.87420        -1.03588
O         -6.61718        -3.71793         2.02424
H         -5.89273        -4.18908         2.48696
O         -7.67017        -3.13873        -1.44342
O         -4.97478         2.22302         1.99015
O         -9.01474        -0.07914         1.63661
O          6.03613        -7.84926         0.74813
O         -3.83360         0.11889        -0.92805
O          2.95256         1.38083        -1.30306
H          2.11862         1.43264        -1.82942
O          1.38911        -9.69042         1.81302
H          2.20307        -9.25303         2.14377
O          3.75934        -3.66679         2.61211
H          3.63259        -2.75266         2.94769
O          1.21221         5.16886         2.24735
H          2.01873         4.71957         2.58004
O          0.59459        -0.84914         2.06119
O         -3.72984         9.19008        -2.54163
H         -2.83176         8.94551        -2.85492
O          4.17747         1.24275         2.07091
H         12.03051        -1.22629        -0.43347
H         11.94550         1.21155        -0.72030
H         10.76280         3.35000        -0.44165
H          9.55968         5.48868        -0.39656
H          8.33870         7.65599        -0.46886
H          7.11020         9.80880        -0.58149
H          4.97652        11.05339        -0.57348
H          2.50146        11.06591        -0.46554
H          0.04265        11.06667        -0.53111
H         -2.39141        11.04634        -0.85156
H         -4.91246        11.02132        -0.53697
H         -7.00006         9.81059        -0.12514
H         -8.30679         7.70151        -0.17897
H         -9.56948         5.51472        -0.41539
H        -10.77918         3.38480        -0.56897
H        -12.08370         1.23944        -0.48225
H        -12.09640        -1.19727        -0.56187
H        -10.84821        -3.33714        -0.74643
H         -9.56743        -5.63455        -0.44847
H         -8.29458        -7.72948        -0.56486
H         -7.03524        -9.82499        -0.78162
H         -4.87930       -11.03540        -0.81027
H         -2.43188       -11.02607        -0.59853
H         -0.01541       -11.06083        -0.28477
H          2.46959       -10.90183        -0.74133
H          4.63912       -10.72141        -1.48167
H          6.73473        -9.69601        -1.94724
H          7.76050        -7.00857        -2.01176
H          9.31951        -5.34054        -1.08469
H         10.70506        -3.36434        -0.57187
