         310
 CSIRO Nanostructure Databank - Neutral Graphene Oxide Data Set
C         31.99366        57.19816        -3.64951
C         32.02893        58.60718        -3.72205
C         31.16664        59.33162        -4.59092
C         32.09417        61.43953        -3.82749
C         31.20887        60.72483        -4.63344
C         33.58023        52.92732        -1.75313
C         33.62183        54.36039        -1.80582
C         32.79376        55.06866        -2.69277
C         33.77206        57.19774        -1.94409
C         32.84451        56.48363        -2.77104
C         33.81471        58.63153        -2.00628
C         32.94636        59.33099        -2.89350
C         33.90205        61.46343        -2.13731
C         32.97767        60.76087        -2.94259
C         35.62142        48.62024        -0.74057
C         35.53609        50.00858        -0.51112
C         34.56861        50.77494        -1.15844
C         35.49917        52.86864        -0.19885
C         34.50314        52.19065        -1.01328
C         35.29964        54.33489         0.09307
C         34.54658        55.06717        -0.98627
C         35.57009        57.17236        -0.22446
C         34.63537        56.47122        -1.06467
C         35.49365        58.63719        -0.17367
C         34.68325        59.36057        -1.15560
C         35.83005        61.49064        -0.60199
C         34.77628        60.78470        -1.25835
C         37.83438        44.22833        -0.29147
C         37.73660        45.59746         0.02437
C         36.66937        46.42078        -0.40570
C         37.62022        48.41701         0.70923
C         36.63852        47.82031        -0.18165
C         37.57782        49.88236         1.06951
C         36.47959        50.68050         0.42372
C         37.67195        52.86498         0.95515
C         36.52705        52.16860         0.39843
C         37.67624        54.30349         1.00189
C         36.54838        55.05275         0.53964
C         37.58046        57.20220         1.28696
C         36.53931        56.46674         0.52742
C         37.78833        58.65149         1.03458
C         36.64470        59.41657         0.50446
C         38.03386        61.45048         0.49700
C         36.83514        60.82957         0.12070
C         40.36723        39.98074        -0.06278
C         40.37679        41.43469        -0.05450
C         39.15707        42.14777        -0.27173
C         40.25003        44.32377         0.26244
C         39.04474        43.52610        -0.07750
C         40.07724        45.65587         0.87530
C         38.80923        46.22351         0.78853
C         40.27325        48.68129         1.73987
C         38.49888        47.53982         1.29652
C         40.14328        49.98723         1.44042
C         38.80597        50.67482         1.66008
C         40.07406        52.86748         1.37211
C         38.85928        52.15060         1.24302
C         40.07682        54.27746         1.55509
C         38.84773        54.97234         1.45629
C         40.04391        57.10795         2.09899
C         38.79016        56.40563         1.76524
C         40.04880        58.58713         2.09840
C         38.96398        59.28541         1.34596
C         40.34462        61.33950         1.22805
C         39.12065        60.71595         1.05898
C         42.71477        35.70958        -0.25967
C         42.69012        37.00371         0.16209
C         41.38466        37.73455         0.42076
C         42.77759        39.91455         0.38691
C         41.47092        39.23951         0.23154
C         42.81514        41.42365         0.47876
C         41.53768        42.11984         0.31387
C         42.69701        44.19272         1.19985
C         41.56431        43.57668         0.42649
C         42.61734        45.66664         1.42832
C         41.36484        46.42422         1.05858
C         42.71841        48.58132         1.59108
C         41.44078        47.89009         1.32863
C         42.69220        49.99915         1.47827
C         41.41726        50.68812         1.13124
C         42.62568        52.91392         1.53356
C         41.38169        52.19802         1.21256
C         42.56029        54.31060         1.84355
C         41.30374        54.97626         1.90114
C         42.41408        57.02401         2.82757
C         41.20472        56.37589         2.28203
C         42.61006        58.54704         2.73338
C         41.37969        59.30158         2.28171
C         42.75967        61.34612         1.95059
C         41.59590        60.55174         1.44195
C         45.19489        33.15619        -1.63488
C         44.03888        33.76239        -1.04136
C         45.14539        35.63400         0.14225
C         43.96519        34.97455        -0.35852
C         45.23361        36.99466         0.36860
C         43.93806        37.66956         0.60515
C         45.26827        39.84208         1.01579
C         43.94340        39.13222         0.88965
C         45.25695        41.35030         1.17188
C         44.00189        42.12374         1.03081
C         45.23582        44.24065         1.52068
C         44.01795        43.49469         1.22759
C         45.11366        45.65408         1.77397
C         43.89471        46.39497         1.62442
C         45.13569        48.56938         1.92815
C         43.89413        47.81418         1.70327
C         45.13382        50.07200         1.91907
C         43.86749        50.77515         1.59729
C         45.12659        52.94328         1.63838
C         43.83557        52.19435         1.59412
C         45.11500        54.29320         2.30421
C         43.77596        54.97482         2.30007
C         45.52566        57.25745         3.09475
C         43.59183        56.17135         2.94205
C         45.33330        58.65028         2.77281
C         43.97032        59.15870         2.25297
C         45.14449        61.43447         2.23870
C         43.93243        60.69139         2.26081
C         46.45933        33.68852        -1.74988
C         47.56256        35.95226        -1.32372
C         46.84982        34.84125        -0.97245
C         47.61484        37.19323        -0.54275
C         46.47650        37.74866         0.22733
C         47.69845        39.92369         0.41175
C         46.47736        39.11759         0.52874
C         47.60304        41.41841         0.33853
C         46.48671        42.14856         0.99324
C         47.80801        44.18431         1.09975
C         46.50504        43.52038         1.26005
C         48.13532        45.40854         1.65837
C         46.26833        46.47702         2.10874
C         47.70876        48.54381         1.79489
C         46.39960        47.82274         1.85871
C         47.61346        50.03498         1.56165
C         46.44081        50.72858         1.64990
C         47.71069        52.95605         1.74174
C         46.42849        52.21597         1.54092
C         47.72008        54.33790         1.97578
C         46.47557        55.00525         2.48244
C         47.83025        57.18786         2.40267
C         46.56921        56.48290         2.63879
C         47.78801        58.72421         2.39306
C         46.46408        59.37228         2.42411
C         47.55793        61.49424         1.78048
C         46.39366        60.79089         2.12953
C         48.72762        37.96967        -0.79859
C         50.04368        40.13121        -0.76001
C         48.94502        39.29013        -0.23193
C         50.07221        41.48832        -0.56443
C         48.82642        42.15867        -0.08912
C         50.22484        44.30003         0.19638
C         48.96766        43.49716         0.52204
C         50.12589        45.75243         0.33989
C         49.12409        46.30873         1.12105
C         50.14367        48.62497         0.79072
C         49.00078        47.79362         1.36752
C         50.08640        50.11149         0.83098
C         48.76130        50.82263         0.94693
C         50.10198        52.96322         1.22289
C         48.90274        52.26483         1.40469
C         50.11594        54.38356         1.31804
C         48.92682        55.07234         1.71497
C         50.10700        57.23791         1.40607
C         48.97805        56.49829         1.80775
C         50.05519        58.69910         1.34143
C         48.90057        59.41061         1.72227
C         49.90461        61.53505         1.03889
C         48.78907        60.82619         1.50934
C         51.16365        42.32683        -0.98528
C         52.27485        44.52191        -1.20829
C         51.22160        43.69785        -0.73190
C         52.27618        45.91879        -1.03363
C         51.05377        46.55977        -0.47344
C         52.17988        48.83544        -0.81860
C         51.03012        48.03211        -0.27142
C         52.23476        50.32387        -0.52597
C         51.14991        50.93382         0.21793
C         52.48352        53.05855         0.32388
C         51.39361        52.22126         0.94510
C         52.48528        54.41933         0.52072
C         51.30307        55.12710         0.98401
C         52.41982        57.29136         0.44923
C         51.28191        56.54132         0.97524
C         52.33418        58.74519         0.34478
C         51.16083        59.42536         0.79931
C         52.23423        61.59603         0.28281
C         51.10383        60.86091         0.70851
C         53.39953        46.71243        -1.32769
C         54.57777        48.88586        -1.41390
C         53.43879        48.12593        -1.16167
C         54.64373        50.30733        -1.19853
C         53.52595        51.01735        -0.63991
C         54.79212        53.10622        -0.63528
C         53.61402        52.36916        -0.28152
C         54.84210        54.50340        -0.43430
C         53.78664        55.17980         0.42154
C         54.67543        57.32810        -0.58360
C         53.57863        56.63030         0.08452
C         54.61035        58.84078        -0.65763
C         53.42773        59.50350        -0.10691
C         54.57518        61.65505        -0.51386
C         53.42124        60.94001        -0.09676
C         55.81753        51.02100        -1.47734
C         57.05210        53.15062        -1.61243
C         55.89841        52.42263        -1.25801
C         57.10545        54.55224        -1.44041
C         55.96245        55.22783        -0.88006
C         57.11546        57.39593        -1.08774
C         55.98572        56.66032        -0.78475
C         57.16831        58.86289        -0.68538
C         55.85605        59.59144        -0.80241
C         56.97121        61.73454        -1.20243
C         55.80570        60.99915        -0.79959
C         58.23160        55.31588        -1.81761
C         59.38307        57.45515        -2.09942
C         58.28154        56.72426        -1.63166
C         59.48102        58.90901        -1.96570
C         58.34022        59.65103        -1.27175
C         59.20372        61.77039        -2.23604
C         58.15826        61.09128        -1.57766
C         60.34903        59.69620        -2.84131
C         60.25745        61.07006        -2.86682
O         40.37544        59.36013         3.31695
O         44.52545        56.63476         3.84417
O         47.73768        41.97776        -1.04856
O         41.47143        47.36727        -0.07113
O         54.27705        57.99085        -1.84242
O         50.28133        47.44363        -1.38441
O         50.11510        43.53529         1.43977
O         41.26777        44.29742        -0.81515
O         37.68651        56.78265         2.67883
O         41.45631        51.47327        -0.09113
O         45.82980        54.26969         3.57789
O         45.36572        40.44775         2.35559
O         50.77042        49.34692         1.91289
O         43.17917        40.69492        -0.78544
O         48.79974        39.42282         1.22965
O         43.71466        38.21986         1.99101
O         48.20793        57.99715         3.58733
O         44.04488        58.74934         0.88805
O         39.25679        47.97711         2.38627
O         36.36380        50.19640         1.83370
O         42.30980        44.71102         2.51758
O         48.73211        48.15097         2.75203
O         46.28490        34.85260         0.32042
O         59.55945        59.37786        -0.53440
O         51.76850        49.76668        -1.84745
O         45.08333        49.36176         3.20297
O         42.35098        57.92656         3.99905
O         35.40015        59.16443         1.19939
O         45.79128        52.80951         0.32211
O         47.34863        45.84616         2.71115
O         48.38747        50.93003        -0.47155
H         47.60642        51.52290        -0.54367
O         57.39583        58.83681         0.76582
H         58.37567        58.85842         0.88841
O         40.32402        37.19016        -0.36085
H         40.50400        37.38142        -1.30387
O         34.39903        54.35566         1.27319
H         34.89817        53.98363         2.03186
O         54.32845        55.16133         1.79194
H         54.26443        54.24016         2.12483
O         38.59258        50.73208         3.08898
H         37.61700        50.73350         3.23186
O         41.96001        60.10628         0.09872
H         42.82549        59.56787         0.18866
O         51.96293        51.86127         2.26307
H         51.48368        51.07179         2.60428
H         31.28653        56.64137        -4.28204
H         30.45980        58.78051        -5.22743
H         32.11624        62.53779        -3.86992
H         30.53361        61.26706        -5.31019
H         32.85723        52.39719        -2.39070
H         32.08413        54.52023        -3.32928
H         33.96072        62.55914        -2.21300
H         34.87580        48.15022        -1.39914
H         33.85872        50.28023        -1.83828
H         35.94615        62.56438        -0.81037
H         36.98373        43.71113        -0.75921
H         35.86542        45.96950        -1.00582
H         38.18186        62.51654         0.26922
H         39.40579        39.47046        -0.22566
H         38.25812        41.57549        -0.54489
H         40.44130        62.40361         0.96119
H         41.77830        35.21620        -0.56149
H         41.11681        37.54610         1.49883
H         42.76033        62.44183         1.82648
H         44.98348        32.25495        -2.23190
H         43.07787        33.30895        -1.33413
H         45.09111        62.52907         2.12295
H         47.16412        33.24831        -2.47118
H         48.13575        35.94232        -2.26321
H         47.50247        62.58144         1.62045
H         49.46679        37.60635        -1.52890
H         50.89623        39.62220        -1.23526
H         49.84675        62.62626         0.91725
H         51.97789        41.85955        -1.56032
H         53.12412        44.04939        -1.72487
H         52.18141        62.69370         0.24928
H         54.30698        46.21248        -1.69964
H         55.49115        48.37685        -1.75668
H         54.53719        62.75341        -0.54820
H         56.68329        50.49641        -1.90779
H         57.91412        52.62337        -2.04707
H         56.88944        62.82428        -1.32938
H         59.10028        54.80896        -2.26336
H         60.17867        56.92879        -2.64760
H         59.12149        62.85691        -2.38082
H         61.07724        59.17211        -3.47644
H         60.97026        61.64263        -3.47758
