         762
 CSIRO Nanostructure Databank - Neutral Graphene Oxide Data Set
C         22.89692        24.60257         0.42207
C         21.75684        25.33697         0.39678
C         22.94390        27.47973         0.48107
C         21.77720        26.77582         0.47942
C         23.02264        28.98439         0.66293
C         21.72961        29.73480         0.51856
C         22.84274        31.79752        -0.21278
C         21.69947        31.07247         0.19778
C         22.84929        33.25604        -0.33153
C         21.62302        34.01387        -0.02029
C         22.91568        36.07335         0.41425
C         21.68195        35.34739         0.15823
C         22.74050        37.35848         0.85559
C         21.60135        38.26447         0.69052
C         22.94977        40.14043        -0.41947
C         21.75711        39.53498         0.24864
C         22.81735        41.49536        -1.08462
C         21.57859        42.29305        -0.94724
C         22.84988        44.40262        -0.96052
C         21.60591        43.64017        -0.93171
C         22.81052        45.84347        -0.77178
C         21.61567        46.52791        -0.54256
C         22.76790        48.65830        -0.39718
C         21.60061        47.92420        -0.35494
C         25.51770        23.09547         0.41747
C         25.44387        24.48473         0.29013
C         24.21182        25.24054         0.59043
C         25.47860        27.47214         0.10280
C         24.24607        26.77230         0.55043
C         25.45505        28.88044        -0.14599
C         24.13654        29.57972        -0.18084
C         25.35072        31.79954        -0.62464
C         24.07827        31.06244        -0.49792
C         25.43359        33.16299        -0.43256
C         24.18588        33.98165        -0.29127
C         25.60854        36.05489         0.19764
C         24.26315        35.29695         0.51320
C         25.77449        37.59241         0.17367
C         24.62279        38.45985         0.41688
C         25.44932        40.25324        -0.95782
C         24.32573        39.58159        -0.30331
C         25.36319        41.56805        -1.35556
C         24.03982        42.27433        -1.58397
C         25.30786        44.46098        -1.13055
C         24.05074        43.73932        -1.16322
C         25.25937        45.89128        -0.93031
C         24.05271        46.58228        -0.79837
C         25.21441        48.80098        -0.70859
C         24.02737        48.03353        -0.62859
C         25.26657        50.21233        -0.59500
C         27.90922        23.07692        -0.22235
C         26.67301        22.37319         0.10637
C         27.92924        24.53626         0.21384
C         26.64201        25.21650        -0.27457
C         27.86491        27.37500        -0.44202
C         26.66735        26.72754        -0.09270
C         27.80574        28.77569        -0.89348
C         26.56919        29.54257        -0.66586
C         27.87337        31.74795        -1.07262
C         26.52437        30.97903        -0.99499
C         27.89230        33.16532        -0.73409
C         26.69986        33.88470        -0.53938
C         27.99016        36.00353        -0.65282
C         26.75590        35.30466        -0.37954
C         28.03080        37.42336        -0.83484
C         26.85094        38.20135        -0.61516
C         27.89702        40.23494        -1.45188
C         26.72163        39.53646        -1.02243
C         27.89585        41.62865        -1.52514
C         26.58569        42.35034        -1.78383
C         27.81662        44.51499        -1.28286
C         26.52722        43.78356        -1.27277
C         27.80292        45.99842        -1.10323
C         26.52445        46.66226        -0.64309
C         27.75847        48.84643        -0.67613
C         26.49774        48.11185        -1.10963
C         27.73854        50.23582        -0.55692
C         26.46619        50.90293        -0.57875
C         30.38860        20.24466         0.04205
C         29.32781        20.88761        -0.47865
C         30.56880        23.12376        -0.36703
C         29.22568        22.36404        -0.51345
C         30.41103        24.60889        -0.08659
C         29.18315        25.28013        -0.17858
C         30.36666        27.39976        -0.46885
C         29.13500        26.68136        -0.39251
C         30.38741        28.79752        -0.83698
C         29.12017        29.50562        -1.16030
C         30.32872        31.63916        -1.02934
C         29.13399        30.98317        -1.02732
C         30.46899        33.08049        -0.79418
C         29.19014        33.85274        -0.57691
C         30.44931        35.95077        -1.10076
C         29.21996        35.30227        -0.81062
C         30.43477        37.34159        -1.37791
C         29.21878        38.04655        -1.29515
C         30.46417        40.27133        -1.56202
C         29.14584        39.48556        -1.62079
C         30.34368        41.68678        -1.22682
C         29.12567        42.34048        -1.32244
C         30.31194        44.50542        -0.72588
C         29.01019        43.73719        -0.75337
C         30.20854        45.94153        -0.35527
C         29.00557        46.72194        -0.64394
C         30.19862        48.85115        -0.18980
C         28.97897        48.11020        -0.49674
C         30.21667        50.28000        -0.16102
C         28.98585        50.98330        -0.36507
C         30.23734        53.06510        -0.36543
C         29.01837        52.37878        -0.43114
C         32.88933        18.80503         0.84310
C         32.78004        20.24194         1.04468
C         31.49308        20.96223         0.73083
C         32.85243        23.19756         0.76408
C         31.53786        22.45198         0.61639
C         32.86053        24.66503         0.44968
C         31.60655        25.34969         0.03075
C         32.84252        27.50130        -0.01720
C         31.58387        26.73921        -0.15266
C         32.85632        28.91850        -0.51330
C         31.57255        29.47389        -0.99174
C         32.80773        31.61622        -1.63110
C         31.53367        30.89067        -1.40355
C         32.93573        33.07339        -1.33209
C         31.72683        33.79253        -1.13948
C         32.96952        35.88472        -1.22189
C         31.72049        35.20941        -1.15358
C         33.00918        37.34106        -1.53046
C         31.69480        38.08549        -1.81715
C         32.97779        40.31487        -1.38504
C         31.69601        39.47088        -1.12495
C         32.86157        41.66561        -0.67389
C         31.54569        42.37482        -0.70139
C         32.80502        44.57022        -0.52144
C         31.50425        43.85274        -0.63448
C         32.76984        46.04375        -0.27733
C         31.44880        46.69727        -0.01825
C         32.59067        48.85448         0.39016
C         31.39947        48.17186         0.01504
C         32.67553        50.26010         0.32632
C         31.46435        50.98351         0.00468
C         32.72080        53.20160        -0.32807
C         31.44432        52.40639        -0.15329
C         32.71091        54.59955         0.27564
C         35.33773        18.87575         0.90244
C         34.10187        18.16987         0.93500
C         35.35760        20.27201         0.67616
C         34.13889        21.04261         0.92702
C         35.30584        23.10706         0.18676
C         34.13737        22.47023         0.58753
C         35.31590        24.56345        -0.00874
C         34.15498        25.30475         0.14470
C         35.42434        27.45411        -0.38794
C         34.16089        26.77607         0.06376
C         35.42178        28.74931        -1.19222
C         34.10714        29.52552        -1.05058
C         35.76619        31.81116        -1.37218
C         33.97300        30.71267        -1.68371
C         35.44855        33.04777        -0.89096
C         34.17682        33.74397        -1.13148
C         35.41668        35.85081        -0.62436
C         34.17328        35.16184        -1.00610
C         35.49148        37.32410        -0.83172
C         34.28471        38.10769        -1.26534
C         35.34246        40.25908        -0.48551
C         34.25199        39.57440        -0.98516
C         35.31647        41.71833        -0.26802
C         34.10964        42.43930        -0.43437
C         35.20905        44.51535         0.25597
C         34.05816        43.82544        -0.20807
C         35.14523        45.94105         0.65994
C         33.89303        46.70228         0.41434
C         35.46453        49.06368         0.91344
C         33.65256        47.96961         0.87211
C         35.31098        50.35950         0.46651
C         33.96108        51.03098         0.55200
C         35.21628        53.23042        -0.09145
C         33.94360        52.49248         0.22637
C         35.17575        54.74331         0.06219
C         33.84506        55.30622         0.41749
C         37.87651        16.33365         1.97658
C         36.65437        16.92837         1.70327
C         37.79239        18.75857         0.56173
C         36.60126        18.16463         1.02722
C         37.71074        20.07816        -0.18464
C         36.52796        20.93486         0.23137
C         37.73350        22.96210        -0.48765
C         36.53656        22.33369        -0.00725
C         37.70103        24.41094        -0.80042
C         36.54478        25.22857        -0.40346
C         37.86735        27.32458        -0.70383
C         36.61864        26.60736        -0.59961
C         37.87923        28.78220        -0.57685
C         36.70034        29.52948        -0.84517
C         37.93465        31.59302        -0.33084
C         36.79205        30.93711        -0.82693
C         37.86426        33.07215        -0.22143
C         36.46690        33.66936         0.04939
C         37.65524        35.85502         0.55938
C         36.49418        35.17671        -0.10154
C         37.62833        37.35215         0.58610
C         36.64484        38.07779        -0.27651
C         37.74909        40.23203         0.11608
C         36.58659        39.56201        -0.15374
C         37.78060        41.71028         0.05259
C         36.48644        42.43029         0.07150
C         37.69144        44.57349         0.54543
C         36.44887        43.82594         0.35769
C         37.72732        45.94599         0.46199
C         36.48888        46.70891         0.69336
C         37.76163        48.90536        -0.08607
C         36.49204        48.17671         0.39497
C         37.75930        50.36780         0.04768
C         36.53015        51.02948         0.09932
C         37.74458        53.21402         0.36264
C         36.50875        52.49995        -0.08065
C         37.72305        54.70315         0.55891
C         36.46629        55.49211         0.27518
C         37.72656        57.52572         0.79984
C         36.52850        56.90902         0.70775
C         40.48073        15.84433         3.34311
C         40.34196        16.30866         2.01940
C         39.08129        16.88828         1.50697
C         40.21771        18.73549         0.18303
C         39.02364        18.07714         0.70757
C         40.23676        20.13217        -0.11334
C         39.00261        20.86254        -0.22047
C         40.22692        22.88571        -1.00211
C         38.95653        22.22561        -0.57170
C         40.29747        24.40025        -1.12563
C         39.01936        25.18109        -1.05305
C         40.33298        27.26278        -0.48425
C         39.07020        26.61696        -0.74418
C         40.33480        28.68673        -0.16162
C         39.09682        29.45012        -0.26017
C         40.30109        31.60712         0.32434
C         39.10389        30.86954        -0.06341
C         40.33313        32.97942         0.45124
C         39.11647        33.78770         0.18051
C         40.26500        35.94283         1.10222
C         39.00719        35.17038         0.77042
C         40.13325        37.33022         1.25403
C         38.89453        38.07344         0.88178
C         40.28785        40.21920         0.66937
C         39.01765        39.48058         0.36594
C         40.19080        41.67866         0.94272
C         39.03490        42.44674         0.39310
C         40.25556        44.58840         0.88768
C         38.93330        43.83965         1.00729
C         40.27101        45.97891         0.63327
C         39.01938        46.64846         0.20694
C         40.29294        48.89785         0.17609
C         39.04815        48.13587        -0.08160
C         40.28429        50.33745         0.09787
C         39.02839        51.09270         0.04741
C         40.25455        53.27564         0.15290
C         39.02082        52.47279         0.19720
C         40.25699        54.61917         0.87657
C         39.01343        55.45354         0.59944
C         40.24413        57.69930         0.70248
C         38.99675        56.81643         0.65676
C         40.18825        58.75651        -0.37823
C         42.90489        15.69165         3.08074
C         41.74276        15.49609         3.83608
C         42.80982        16.15459         1.75413
C         41.51068        16.31496         1.24294
C         42.68580        18.65801         0.03304
C         41.42159        18.04042        -0.00676
C         42.71559        20.05402        -0.13562
C         41.49776        20.75484        -0.30992
C         42.80070        22.91668        -0.79610
C         41.51925        22.13524        -0.82929
C         42.75917        24.39138        -0.78581
C         41.57358        25.11029        -0.84807
C         42.78150        27.16861        -0.08495
C         41.52872        26.52729        -0.53833
C         42.78364        28.63935         0.31377
C         41.50604        29.35415         0.17616
C         42.79636        31.47778         0.85272
C         41.49267        30.77168         0.59408
C         42.80094        32.94255         0.91894
C         41.62145        33.78949         0.51770
C         42.75642        35.73646         1.58751
C         41.53475        35.18416         1.21034
C         42.96575        37.12058         2.01458
C         41.14068        38.22026         1.79530
C         42.64202        40.23792         1.59058
C         41.36987        39.53187         1.42299
C         42.67925        41.61938         1.44887
C         41.43023        42.42210         1.37817
C         42.70188        44.59451         1.11585
C         41.45461        43.89281         1.12989
C         42.68189        46.02039         0.97432
C         41.48050        46.72005         0.68532
C         42.66597        48.92340         0.69288
C         41.46565        48.17857         0.46119
C         42.68872        50.34911         0.59930
C         41.50138        51.04210         0.23022
C         42.81357        53.22601         0.43388
C         41.55769        52.51212         0.11351
C         42.83086        54.67980         0.43974
C         41.55753        55.40937         0.72375
C         42.76237        57.56062         0.07493
C         41.55626        56.91252         0.66298
C         42.61210        58.65621        -0.70994
C         41.30203        59.22212        -0.97536
C         45.20059        15.98560         1.17187
C         43.97868        16.60063         0.96738
C         45.29386        18.60194         0.01916
C         43.92770        17.83698         0.15650
C         45.29119        20.07449         0.01371
C         44.00048        20.78696         0.01724
C         45.31946        22.95670        -0.32742
C         44.01454        22.27706        -0.18875
C         45.33620        24.33999        -0.58137
C         44.06911        25.06918        -0.79448
C         45.36533        27.20938        -0.21352
C         44.06550        26.55154        -0.52338
C         45.33879        28.68845         0.03548
C         44.05285        29.41779         0.25410
C         45.28898        31.55823         0.46450
C         44.06691        30.76036         0.53922
C         45.28151        32.88829         0.76860
C         44.06988        33.49178         1.48197
C         45.27521        35.81600         1.24884
C         44.05077        35.00400         1.55337
C         45.18044        37.29691         1.03519
C         43.97738        37.95141         1.59841
C         45.23872        40.17871         1.50235
C         43.93643        39.45158         1.75817
C         45.22693        41.62223         1.08593
C         43.92298        42.38204         1.16659
C         45.20665        44.55218         1.29161
C         43.92480        43.85867         1.25428
C         45.26813        46.02061         1.00416
C         43.95839        46.77620         0.94944
C         44.85206        49.02907         1.66047
C         43.82954        48.24626         1.13709
C         45.01875        50.39633         1.37907
C         43.91306        51.06945         0.82715
C         45.27033        53.19468         0.71700
C         43.97017        52.50156         0.61434
C         45.30873        54.70851         0.66116
C         44.00778        55.38983         0.48693
C         45.16298        57.54227         1.00791
C         44.10648        56.86119         0.15955
C         46.44089        16.59770         0.85849
C         47.76948        18.66123         0.40919
C         46.51895        17.91884         0.45421
C         47.76735        20.07808         0.27019
C         46.49425        20.79568         0.13103
C         47.74381        22.99086         0.08934
C         46.49354        22.22419        -0.03163
C         47.79105        24.36575        -0.41892
C         46.57932        25.07933        -0.61940
C         47.82633        27.26979        -0.84840
C         46.57860        26.49882        -0.68226
C         47.81400        28.76866        -0.71770
C         46.52100        29.48926        -0.41165
C         47.83552        31.60227         0.16518
C         46.52613        30.94860        -0.10715
C         47.80338        32.98660         0.47918
C         46.49947        33.68599         0.47855
C         47.78594        35.86893         0.91556
C         46.50024        35.16065         0.68614
C         47.76873        37.23360         1.10924
C         46.51298        38.01001         1.03035
C         47.71257        40.15339         1.20815
C         46.53053        39.46132         1.27979
C         47.71608        41.59045         1.00932
C         46.52257        42.32328         1.03655
C         47.69188        44.50062         0.41872
C         46.54560        43.78973         1.09093
C         47.75947        45.99048         0.60648
C         46.64416        46.61522         1.16881
C         47.82808        48.80519         1.34096
C         46.79614        47.94610         1.65187
C         47.70760        50.29843         1.36251
C         46.37964        51.04012         1.38639
C         47.32373        53.30744         2.00488
C         46.33466        52.53137         1.48538
C         47.53853        54.71981         1.77656
C         46.43817        55.45416         1.28760
C         46.28125        56.88458         1.41760
C         50.20508        18.66227         0.47006
C         48.99917        17.97874         0.50548
C         50.23301        20.06174         0.36143
C         49.01383        20.76474         0.29166
C         50.33043        22.94313         0.05982
C         49.04641        22.24672         0.32436
C         50.33506        24.34597        -0.18100
C         49.09100        25.01772        -0.58380
C         50.36273        27.23042        -0.35731
C         49.14006        26.53902        -0.79300
C         50.37273        28.70806        -0.24300
C         49.10328        29.50031        -0.43034
C         50.28268        31.49768         0.49902
C         49.03586        30.87574         0.12427
C         50.22040        32.91783         0.91227
C         48.98560        33.70162         0.75987
C         50.26852        35.82070         0.95988
C         49.01240        35.11168         0.94989
C         50.30531        37.27672         1.03346
C         49.03407        37.95246         1.36237
C         50.29027        40.17892         1.11128
C         49.02160        39.46183         1.36768
C         50.20994        41.56552         0.89766
C         48.95622        42.22455         0.73370
C         50.24197        44.13535        -0.15801
C         48.92470        43.57231         0.15528
C         50.16292        46.27064         0.01389
C         48.96887        46.78534         0.51144
C         50.14184        48.98804         0.46619
C         49.00947        48.21405         0.79397
C         50.12275        50.46307         0.58951
C         49.03141        51.01001         1.42034
C         50.33683        53.13536         1.76228
C         49.23389        52.23492         1.98649
C         50.09161        54.54115         1.99188
C         48.88094        55.22791         2.00763
C         52.73156        20.08795        -0.15201
C         51.56237        20.77942         0.51186
C         52.76716        22.92795        -0.05508
C         51.52846        22.23712         0.11420
C         52.77298        24.35580        -0.08167
C         51.54480        25.07258        -0.16661
C         52.79726        27.23505         0.09777
C         51.54667        26.52840        -0.15716
C         52.82110        28.63042         0.35712
C         51.48252        29.30859         0.59883
C         52.77557        31.48517         0.98157
C         51.49011        30.81498         0.52130
C         52.78013        32.95583         0.64554
C         51.54153        33.68414         0.95400
C         52.62581        35.83307         0.24965
C         51.45979        35.12416         0.78512
C         52.74342        37.27132         0.62807
C         51.48226        38.00162         0.92061
C         52.75228        40.14040         0.72387
C         51.53247        39.45699         0.97990
C         52.78834        41.60609         0.85064
C         51.45902        42.35255         0.92140
C         52.68986        44.52524         0.30918
C         51.42199        43.72385         0.37316
C         52.70568        46.01802         0.22653
C         51.43641        46.79767         0.40863
C         52.69797        49.00052         0.09837
C         51.43918        48.32556         0.50210
C         52.70881        50.51440         0.18295
C         51.43760        51.24203         0.56347
C         52.83964        53.10552         1.36424
C         51.54744        52.55032         1.26280
C         53.88392        20.75955        -0.38454
C         55.22533        22.89026        -0.20582
C         53.98369        22.19303        -0.19268
C         55.22918        24.31207        -0.04354
C         54.01376        25.05897        -0.02204
C         55.24516        27.14264         0.41269
C         54.01788        26.48908         0.09400
C         55.31674        28.60702         0.62452
C         54.03326        29.34967         0.53931
C         55.21365        31.52162         0.28966
C         54.04563        30.76896         0.56977
C         55.13787        32.89887        -0.00921
C         53.88848        33.60148         0.14789
C         55.11036        35.79575        -0.34675
C         53.84135        35.05906        -0.14495
C         55.00274        37.27919        -0.66586
C         53.99075        37.99375         0.24472
C         55.11259        40.15826        -0.08828
C         53.95942        39.48410         0.25749
C         55.25657        41.62253         0.03805
C         54.02835        42.36857         0.43789
C         55.15534        44.48842        -0.53812
C         53.90801        43.76245        -0.11450
C         55.16293        46.00946        -0.59059
C         53.88854        46.78556        -0.29085
C         55.16327        48.92074        -0.11984
C         53.96558        48.23172         0.02193
C         55.21191        50.36525         0.12399
C         54.02300        51.13226         0.42778
C         54.01273        52.42500         0.98492
C         57.67868        22.95186        -0.28500
C         56.49180        22.24191        -0.28001
C         57.73258        24.36470        -0.11422
C         56.47016        24.99376         0.13512
C         58.13611        27.39334         0.20359
C         56.36335        26.33140         0.60377
C         57.84934        28.71078        -0.13057
C         56.64472        29.38551         0.41389
C         57.41189        31.46642        -0.88725
C         56.61190        30.90652         0.29622
C         57.49189        32.96973        -0.71209
C         56.33343        33.64504        -0.39057
C         57.51274        35.83909        -0.86328
C         56.28019        35.10857        -0.47136
C         57.51488        37.31842        -0.74727
C         56.33106        37.99726        -0.64413
C         57.56969        40.20800        -0.56234
C         56.25484        39.49396        -0.81463
C         57.66428        41.59413        -0.68009
C         56.43823        42.35232        -0.53282
C         57.71493        44.49628        -0.52084
C         56.43731        43.73525        -0.55492
C         57.69216        46.00963        -0.39164
C         56.41452        46.76825        -0.45907
C         57.63478        48.91099        -0.49506
C         56.40068        48.16857        -0.36108
C         57.63231        50.29260        -0.26648
C         56.46992        50.99026         0.07581
C         60.05220        24.41421        -1.00841
C         58.95834        25.11112        -0.45342
C         60.04582        27.22311        -1.26755
C         59.04391        26.55033        -0.50338
C         59.97118        28.66669        -1.40971
C         58.82718        29.39313        -0.94604
C         59.86831        31.52429        -1.60207
C         58.75065        30.79747        -1.10927
C         59.91050        32.95216        -1.47761
C         58.84694        33.62361        -0.63056
C         60.12416        35.83683        -0.89741
C         58.80379        35.10986        -0.94684
C         60.12575        37.35851        -0.75821
C         58.78345        38.02290        -0.66102
C         60.56078        40.45802        -1.01594
C         58.71439        39.37567        -0.40690
C         60.21521        41.69953        -1.50511
C         58.81926        42.32852        -1.38278
C         59.96370        44.53359        -1.62434
C         58.91080        43.82252        -1.09042
C         60.09981        46.00610        -1.40848
C         58.94095        46.76691        -0.73253
C         59.89300        48.88910        -1.53535
C         58.84108        48.22516        -0.93342
C         61.10376        25.07475        -1.65071
C         61.08650        26.45335        -1.83219
C         61.01128        29.40294        -2.03601
C         60.98006        30.77833        -2.10259
C         61.03587        33.72907        -1.85940
C         61.19549        35.06419        -1.55134
C         61.29129        38.11236        -1.32318
C         61.48642        39.44951        -1.50072
C         61.14097        42.47688        -2.29192
C         61.02313        43.83649        -2.33529
C         60.99650        46.81948        -2.23496
C         60.94345        48.18363        -2.19641
O         32.82228        24.17174         1.85204
O         58.06042        35.38152        -2.17267
O         23.81795        38.01755         1.46261
O         35.86778        52.86342        -1.35405
O         49.28376        25.63916        -1.92156
O         57.85421        45.16095         0.79697
O         42.00345        30.89118         1.97691
O         31.00546        21.85011         1.81397
O         41.78565        56.24422         1.94514
O         49.06121        38.69396         2.63144
O         40.03489        39.70973        -0.67197
O         38.72572        42.25837        -0.99009
O         53.84958        37.45271         1.59429
O         57.47142        26.82595         1.29802
O         30.67733        46.08765         1.07081
O         31.93456        31.26788        -2.78373
O         52.55953        49.83414        -1.09854
O         48.24826        52.70284         2.86990
O         45.59927        27.75278         1.14469
O         29.87282        39.89211        -2.82014
O         37.81643        37.96574         1.88714
O         44.47308        41.89786        -0.15166
O         32.78231        28.61984         0.92522
O         50.10509        29.39196        -1.50201
O         52.98837        45.32216         1.49739
O         27.94992        45.40872        -2.43751
O         32.99208        45.54977        -1.63050
O         26.13271        36.80685         1.35398
O         40.41202        41.97100         2.34295
O         44.72056        46.40989        -0.29300
O         32.03458        41.71569         0.55711
O         50.88854        33.19656         2.19378
O         46.25083        30.45900        -1.46984
O         47.92431        43.88085        -0.87030
O         48.34597        22.84172         1.46071
O         45.71650        37.75242        -0.22523
O         38.13671        24.80979        -2.14364
O         23.46913        33.90955        -1.54505
O         34.53027        48.54713         1.80524
O         41.37976        16.64418        -0.11596
O         38.67581        33.76420        -1.23625
O         33.93823        37.67339        -2.62696
O         35.05295        27.47422         1.01442
O         54.21743        43.88955        -1.52511
O         50.48948        51.28069        -0.56248
O         38.65893        43.65346         2.37829
O         24.39189        26.04552         1.82423
O         46.31421        34.62676        -0.66189
O         37.55497        53.79633         1.70948
O         45.78639        48.41383         2.49278
O         33.48474        20.74113         2.20187
O         40.24451        23.53760        -2.30252
O         60.11516        46.36487         0.01440
O         42.77189        27.55905         1.31961
O         27.09355        31.39246        -2.26614
O         31.17909        23.03848        -1.61866
O         50.19370        45.27854        -0.96466
O         47.03918        50.70310         0.09300
O         36.76390        48.42491        -1.02474
O         44.96829        35.46069         2.62897
O         39.14072        47.17176        -1.17467
O         43.84331        21.74694         1.16243
O         35.04294        31.23180        -2.42768
O         41.95498        37.67856         2.79434
O         45.71419        53.88793        -0.50178
O         44.09338        26.08296        -1.88968
O         28.37146        28.95258        -2.26556
O         42.37867        22.24937        -2.02610
O         47.77262        28.16913        -2.03864
O         36.67265        37.64845        -1.67237
O         60.46568        36.47884         0.37161
O         56.19072        29.00500         1.74290
O         46.11868        44.25439         2.40999
O         23.82129        30.00100        -1.52461
O         52.25721        42.13136         2.11450
O         30.00978        33.42085         0.57906
O         44.74509        39.95952         2.87663
O         54.28982        46.50142        -1.66505
O         22.62260        40.28062        -1.87927
O         52.83734        35.47298        -1.18143
O         28.38747        22.84648        -1.59214
O         59.84112        40.01882         0.10100
O         51.50199        47.47698         1.69864
O         35.81670        46.28297         1.90861
O         38.00473        35.24304         1.84832
O         33.84364        52.06273         1.61139
O         44.66406        17.88116        -1.09591
O         35.87237        55.37928        -1.06491
O         40.96186        53.13443        -1.10324
O         55.07231        42.14717         1.42413
O         52.76354        31.33238         2.45153
H         52.07243        31.96367         2.78305
O         55.98613        39.72521        -2.24055
H         55.38080        39.00430        -2.54171
O         54.48596        37.40483        -2.02687
H         53.76308        36.73095        -2.12304
O         41.86879        34.14648        -0.90333
H         41.00788        34.17338        -1.37767
O         35.52590        28.33345        -2.57499
H         35.54400        29.14389        -3.13019
O         26.51202        48.09524        -2.56504
H         26.51803        49.02278        -2.88081
O         56.61808        31.18336        -2.07419
H         57.03243        31.63808        -2.83729
O         40.18181        54.22919         2.27250
H         40.41800        55.02043         2.80694
O         26.62928        46.70452         0.81072
H         26.79190        45.79509         1.13975
O         36.09891        33.33747         1.40702
H         36.65181        33.89281         2.00849
O         33.03626        40.62144        -2.78878
H         32.78224        39.80822        -3.29213
O         44.64107        56.89405        -1.20514
H         45.35298        56.22088        -1.27315
O         27.91176        24.50679         1.66169
H         27.98475        25.42367         1.99939
O         37.44511        19.71500        -1.59075
H         37.47405        20.53936        -2.12296
O         31.63376        38.27115        -3.24645
H         32.10111        37.52902        -3.68439
O         40.21223        58.40778         1.97040
H         40.63167        57.81516         2.63366
O         51.83904        20.74989         1.95417
H         52.67576        21.23915         2.10355
O         59.25047        33.47148         0.76317
H         58.76767        32.69928         1.14678
O         26.54859        42.49399        -3.23944
H         25.60449        42.66343        -3.49061
O         28.64660        43.54830         0.66039
H         29.44292        43.24108         1.14539
O         44.16119        33.00216         2.85607
H         44.64790        33.68308         3.37532
O         26.53786        25.05581        -1.71889
H         27.18570        24.38052        -2.02562
O         23.86813        42.32412        -3.04511
H         23.54379        41.43276        -3.31201
O         23.48009        29.17840         2.04411
H         22.98250        28.56396         2.62425
O         57.27996        31.40457         1.48813
H         56.94386        30.87109         2.24511
O         24.39782        34.85975         1.88183
H         24.80995        35.60017         2.38342
O         51.15067        28.99623         1.99091
H         51.76020        29.53905         2.54844
O         58.32969        42.25366        -2.77615
H         58.98886        42.70654        -3.34565
O         32.88798        53.33446        -1.76282
H         33.78571        53.68771        -1.94801
O         31.59987        39.15524         0.27518
H         31.64666        40.00568         0.78297
H         22.85487        23.51771         0.25032
H         20.78543        24.83937         0.26966
H         20.81055        27.29824         0.47266
H         20.79896        29.25665         0.85532
H         20.73478        31.59536         0.26730
H         20.64777        33.51612        -0.10142
H         20.74630        35.91567         0.26386
H         20.58947        37.92693         0.96720
H         20.84128        40.14057         0.17644
H         20.61505        41.76580        -0.92527
H         20.65147        44.17809        -0.86931
H         20.65801        45.99437        -0.49504
H         22.71736        49.74538        -0.25132
H         20.64198        48.42994        -0.17444
H         24.62431        22.53624         0.73370
H         24.33902        50.78989        -0.47245
H         26.64438        21.27486         0.08657
H         26.42927        51.99544        -0.47378
H         30.42233        19.14721        -0.01026
H         28.52583        20.31403        -0.96688
H         30.23445        54.15274        -0.52062
H         28.10116        52.95621        -0.60569
H         31.98853        18.21289         0.63275
H         31.75291        55.05889         0.56255
H         34.12663        17.07217         0.88450
H         33.80550        56.33549         0.80550
H         37.90692        15.40794         2.56782
H         35.73103        16.46625         2.07724
H         37.77781        58.59415         1.05312
H         35.59526        57.47832         0.82368
H         39.60593        15.79516         4.00641
H         39.21003        59.20683        -0.60077
H         43.88984        15.52345         3.53831
H         41.83206        15.13818         4.87089
H         43.48657        59.09393        -1.21016
H         41.23301        60.03558        -1.71179
H         45.22682        15.02908         1.71344
H         45.08172        58.62737         1.17026
H         47.35335        16.04534         1.12024
H         47.06854        57.44207         1.94828
H         51.14133        18.09768         0.57160
H         49.01477        16.88561         0.60289
H         50.98810        55.18383         2.00341
H         48.97277        56.32669         2.03234
H         52.69295        19.00426        -0.33240
H         52.95260        54.09361         1.83421
H         54.75955        20.21626        -0.76893
H         54.96916        52.92903         1.18546
H         58.60644        22.37752        -0.40668
H         56.53407        21.14794        -0.37264
H         58.57296        50.85464        -0.34321
H         56.54594        52.07150         0.25485
H         60.08865        23.31804        -0.97732
H         59.86015        49.98135        -1.64999
H         61.92915        24.48297        -2.06993
H         61.88905        26.92913        -2.41051
H         61.89126        28.87777        -2.43083
H         61.83980        31.30565        -2.53613
H         61.86685        33.23203        -2.38144
H         62.15868        35.54268        -1.77800
H         62.09790        37.46791        -1.70745
H         62.37614        39.77077        -2.06521
H         62.03969        41.99248        -2.70254
H         61.80663        44.41987        -2.83525
H         61.71755        46.33176        -2.90471
H         61.66557        48.76774        -2.78418
