         424
 CSIRO Nanostructure Databank - Neutral Graphene Oxide Data Set
C          1.30667         1.98264         0.42789
C          1.26383         3.37985         0.47228
C          2.50562         1.31850         0.20292
C          2.43072         4.14875         0.26146
C          1.17550         6.32948         0.31761
C          1.13995         7.71405         0.35203
C          2.39709         5.61859         0.30199
C          2.33149         8.47843         0.42755
C          1.12315        10.67935         0.40554
C          1.13020        12.06069         0.36747
C          2.32550         9.92692         0.41813
C          2.34337        12.79989         0.36208
C          1.13711        15.02576         0.24663
C          1.14976        16.40905         0.18423
C          2.34228        14.27239         0.31822
C          2.36655        17.13473         0.16910
C          2.40841        18.56630         0.13030
C          3.70543         2.05630         0.02268
C          3.64932         3.47957         0.04094
C          4.95129         1.38175        -0.11749
C          4.88871         4.25513        -0.31510
C          3.60732         6.35336         0.35326
C          3.57128         7.78151         0.48071
C          4.87370         5.67409         0.20122
C          4.79401         8.52767         0.56123
C          3.55944        10.64011         0.38645
C          3.54926        12.06844         0.37380
C          4.79972         9.91066         0.44215
C          4.83606        12.78099         0.50094
C          3.55477        14.98834         0.30435
C          3.59135        16.40837         0.21238
C          4.83547        14.28421         0.45389
C          4.84014        17.10902         0.20294
C          3.60347        19.23787         0.13568
C          4.85675        18.53350         0.16070
C          6.18807         2.07365        -0.01686
C          6.17219         3.53226         0.02174
C          7.38964         1.38605         0.13407
C          7.34902         4.24833         0.12914
C          6.07254         6.35450         0.32915
C          6.06815         7.77790         0.71039
C          7.34180         5.69518         0.17340
C          7.38076         8.50259         0.80272
C          6.11729        10.58021         0.10673
C          6.10391        12.08465         0.21958
C          7.33774        10.03073         0.86404
C          7.28402        12.76746         0.08400
C          6.07683        14.99581         0.12496
C          6.08345        16.38228         0.13755
C          7.29841        14.23252        -0.30457
C          7.34474        17.09931         0.11215
C          6.08582        19.22398         0.12332
C          7.33188        18.54136         0.11713
C          8.63389         2.10429         0.57257
C          8.63470         3.55497         0.14988
C          9.89771         1.37598         0.22502
C          9.77043         4.22076        -0.18223
C          8.55125         6.41142         0.10647
C          8.61086         7.80677         0.34525
C          9.75893         5.70637        -0.47306
C          9.81992         8.53048         0.21170
C          8.58755        10.69506         0.31097
C          8.53925        12.04398         0.03086
C          9.82261         9.95715         0.24317
C          9.77903        12.79769        -0.37994
C          8.58350        14.94196         0.05312
C          8.56016        16.39824         0.16879
C          9.75590        14.24941         0.04936
C          9.80272        17.11064         0.17836
C          8.55589        19.23863         0.10463
C          9.79519        18.55235         0.11326
C         11.04002         2.01976        -0.17464
C         11.00921         3.47131        -0.59952
C         12.28808         1.33465        -0.29710
C         12.29270         4.20897        -0.30824
C         11.07219         6.37331        -0.11273
C         11.08992         7.80954         0.05969
C         12.27381         5.63972        -0.15293
C         12.28423         8.50262         0.16017
C         11.04041        10.69252         0.16933
C         11.04702        12.07772         0.00832
C         12.32160         9.97375         0.49951
C         12.27548        12.81098         0.00156
C         11.03225        14.93005         0.48750
C         11.03184        16.41099         0.19167
C         12.28727        14.21943         0.04711
C         12.25302        17.10277         0.08586
C         11.02657        19.24124         0.07566
C         12.25522        18.54688         0.04534
C         13.50262         2.03728        -0.41491
C         13.49003         3.49701        -0.35718
C         14.74241         1.36769        -0.48470
C         14.74356         4.19709        -0.37326
C         13.54047         6.32587        -0.10441
C         13.60308         7.78442         0.26958
C         14.71890         5.62714        -0.29220
C         14.74383         8.55775        -0.35045
C         13.53939        10.68799        -0.04037
C         13.52004        12.08457        -0.12661
C         14.73913         9.95616        -0.31817
C         14.73026        12.81970        -0.36170
C         13.49550        14.94483        -0.08484
C         13.49806        16.38800        -0.01543
C         14.72315        14.24866        -0.31265
C         14.71154        17.09918        -0.10802
C         13.49022        19.23645        -0.00604
C         14.71819        18.54519        -0.06733
C         15.97895         2.06452        -0.50210
C         15.96916         3.50829        -0.47035
C         17.21139         1.38164        -0.52569
C         17.22277         4.22681        -0.47450
C         15.95553         6.34622        -0.67193
C         15.93114         7.82945        -0.84177
C         17.24219         5.63921        -0.54936
C         17.26440         8.56112        -1.05347
C         15.95870        10.70114        -0.55292
C         15.93585        12.09979        -0.54438
C         17.22453        10.00113        -0.61529
C         17.22650        12.81727        -0.84051
C         15.95519        14.97806        -0.37851
C         15.95555        16.39798        -0.24692
C         17.19633        14.29796        -0.55248
C         17.18453        17.11152        -0.27175
C         15.95075        19.23737        -0.10941
C         17.18713        18.55335        -0.19233
C         18.45245         2.07199        -0.46763
C         18.45103         3.51347        -0.41946
C         19.68269         1.38741        -0.46920
C         19.67828         4.22815        -0.31336
C         18.45332         6.37381        -0.45395
C         18.46765         7.80581        -0.50877
C         19.68029         5.66022        -0.27202
C         19.65958         8.50968        -0.27972
C         18.41075        10.66240        -0.38307
C         18.37787        12.14366        -0.09313
C         19.66234         9.95652        -0.27015
C         19.69160        12.82103        -0.36171
C         18.40269        14.98765        -0.52780
C         18.41892        16.41039        -0.38265
C         19.68921        14.25193        -0.82870
C         19.65576        17.12091        -0.36446
C         18.41801        19.24279        -0.21399
C         19.65690        18.55413        -0.27980
C         20.91870         2.08023        -0.37814
C         20.90916         3.51626        -0.25915
C         22.15364         1.39851        -0.41355
C         22.13206         4.22660        -0.09831
C         20.89852         6.37090        -0.08109
C         20.89473         7.80848        -0.03675
C         22.12075         5.65307         0.04132
C         22.09418         8.52337         0.18006
C         20.85794        10.66865        -0.08323
C         20.87575        12.12368        -0.19024
C         22.09348         9.96851         0.13346
C         22.13124        12.83621        -0.13117
C         20.92766        14.99304        -0.41594
C         20.90417        16.40804        -0.35713
C         22.12990        14.27345        -0.22862
C         22.12833        17.12760        -0.25718
C         20.89051        19.25147        -0.26051
C         22.13062        18.56790        -0.25810
C         23.38484         2.09271        -0.30883
C         23.36593         3.51906        -0.10886
C         24.62853         1.42861        -0.40987
C         24.58735         4.22650         0.07335
C         23.34211         6.35255         0.29045
C         23.33258         7.80366         0.39129
C         24.54699         5.62807         0.35521
C         24.51207         8.51000         0.62319
C         23.27984        10.70399         0.31597
C         23.32978        12.13358         0.16777
C         24.48985         9.97739         0.72185
C         24.57055        12.84964         0.26787
C         23.35853        14.98957        -0.11861
C         23.35944        16.41525        -0.18922
C         24.58837        14.27985         0.06426
C         24.59038        17.12790        -0.19480
C         23.36690        19.25687        -0.26378
C         24.60401        18.56252        -0.26586
C         25.85510         2.13281        -0.31487
C         25.83221         3.53879        -0.01864
C         27.09757         1.49073        -0.54879
C         27.06387         4.27274         0.05459
C         25.80344         6.29963         0.70188
C         25.78792         7.83371         0.87759
C         27.05633         5.63483         0.35419
C         27.06159         8.57537         0.71303
C         25.80367        10.73065         0.79267
C         25.81227        12.16823         0.45776
C         27.06896         9.97862         0.68288
C         27.04360        12.82839         0.38545
C         25.80185        14.99043         0.04218
C         25.81954        16.40380        -0.16111
C         27.08051        14.32709         0.46878
C         27.04644        17.08873        -0.33686
C         25.84974        19.23150        -0.32807
C         27.07319        18.51438        -0.40619
C         28.32300         2.20223        -0.51610
C         28.31896         3.59365        -0.18908
C         29.56615         1.58172        -0.83069
C         29.54719         4.29036        -0.07386
C         28.27495         6.45864         0.05017
C         28.28591         7.86463         0.59154
C         29.55611         5.70973         0.25918
C         29.51015         8.54628         0.64746
C         28.28571        10.69039         0.54484
C         28.28684        12.11856         0.42283
C         29.52599         9.98254         0.61985
C         29.51649        12.80219         0.23355
C         28.31986        14.92376        -0.12254
C         28.26958        16.29856        -0.71623
C         29.51590        14.21632        -0.08545
C         29.56171        17.04034        -0.54069
C         28.32450        19.18029        -0.54558
C         29.55843        18.46938        -0.56736
C         30.75698         2.30639        -0.81780
C         30.76140         3.65402        -0.39519
C         32.03886         1.67311        -1.32059
C         32.03486         4.48120        -0.40036
C         30.72367         6.36510         0.54988
C         30.76336         7.80776         0.67891
C         31.97905         5.53787         0.72614
C         31.97811         8.46265         0.81501
C         30.74514        10.68190         0.53397
C         30.75257        12.07779         0.23221
C         32.02909         9.97777         0.89328
C         31.96225        12.74740        -0.12713
C         30.76389        14.88201        -0.36564
C         30.76947        16.31352        -0.50666
C         31.98627        14.14858        -0.38336
C         32.01510        17.00650        -0.57992
C         30.79991        19.14802        -0.60076
C         32.02438        18.43972        -0.63443
C         33.28202         2.32913        -0.76795
C         33.27717         3.61696        -0.32587
C         34.53073         1.47591        -0.72194
C         34.49130         4.24642         0.17059
C         33.25971         6.34485         0.84942
C         33.23829         7.74323         0.93505
C         34.45497         5.50679         0.80813
C         34.44733         8.60088         0.98638
C         33.19835        10.51479         0.08954
C         33.17552        11.93943        -0.36360
C         34.48619         9.86821         0.41869
C         34.49575        12.61525        -0.70620
C         33.23171        14.83547        -0.59793
C         33.24056        16.27408        -0.64456
C         34.48543        14.12817        -0.54713
C         34.45835        16.98127        -0.75841
C         33.26840        19.11775        -0.71414
C         34.47573        18.40272        -0.78216
C         35.80819         2.24780        -0.49292
C         35.74901         3.58838         0.00612
C         37.03413         1.63491        -0.67378
C         36.96556         4.29267         0.25650
C         35.68445         5.98370         1.33567
C         35.67701         8.13299         1.54624
C         36.93146         5.57318         0.87512
C         36.92544         8.65032         1.29842
C         35.73055        10.60046         0.29595
C         35.71808        11.92982        -0.10752
C         36.99124         9.95302         0.68040
C         36.98074        12.65528        -0.31589
C         35.68821        14.80662        -0.57445
C         35.73656        16.23586        -1.03214
C         36.93794        14.14531        -0.04652
C         36.97806        16.98574        -0.61604
C         35.74381        19.08306        -0.86426
C         36.94742        18.40749        -0.73787
C         38.25942         2.30376        -0.36545
C         38.22959         3.64833         0.07379
C         39.51528         1.62255        -0.44056
C         39.44224         4.32802         0.45502
C         38.15011         6.48906         0.75676
C         38.13579         7.76418         1.64244
C         39.44130         5.69694         0.85512
C         39.44213         8.54537         1.50866
C         38.20636        10.62177         0.58066
C         38.29182        11.95749        -0.01366
C         39.44304        10.02500         1.12283
C         39.51957        12.77029         0.17655
C         38.23961        14.87429        -0.28778
C         38.18660        16.27233        -0.39521
C         39.49214        14.17876        -0.06490
C         39.43874        17.07756        -0.34267
C         38.24164        19.20361        -0.75997
C         39.27904        18.51381         0.13938
C         40.67311         2.24615        -0.04807
C         40.66669         3.60139         0.40993
C         41.86414         4.24781         0.81071
C         40.65565         6.34460         1.14533
C         40.69971         7.80071         1.31511
C         41.85765         5.58095         1.16159
C         41.86489         8.51509         1.11909
C         40.72855        10.66826         0.78981
C         40.72735        12.09770         0.46894
C         41.88334         9.92531         0.91404
C         41.92897        12.83945         0.49576
C         40.72638        14.89650        -0.01138
C         40.75896        16.36985        -0.15805
C         41.91858        14.20736         0.26129
C         41.87021        17.17442         0.35374
C         40.58028        19.24836         0.23168
C         41.77332        18.56969         0.40505
O         40.28417        16.89041        -1.50159
O         37.78520        12.12906        -1.39961
O         39.44611         9.58400         2.54119
O         32.90671        10.80078        -1.30508
O          6.77023         7.94393         2.01980
O          4.93025        13.55915         1.76087
O         15.68059         6.95785        -2.02464
O         35.58563         6.96982         2.31510
O         25.04857        10.44835         2.02401
O         25.79608         6.93696         2.03772
O         10.93283         3.43826        -2.08268
H         11.74788         2.99339        -2.40218
O         28.18188         6.67337        -1.42224
H         29.04278         7.04613        -1.71305
O         36.75521        14.19371         1.42517
H         36.73614        15.13766         1.69330
O         17.49367        12.64531        -2.26996
H         16.68936        12.90895        -2.76418
O         38.06909         7.32978         3.00862
H         38.29282         8.10674         3.56646
O         38.08549         6.99957        -0.61085
H         38.14859         6.23699        -1.22412
O         34.37210         0.49640         0.34250
H         34.35618         0.98275         1.19353
O         27.17131        14.61705         1.93227
H         26.44838        14.11666         2.36965
O         17.49961         8.63836        -2.49320
H         17.02233         7.86725        -2.88723
O          9.75756        12.84811        -1.86572
H          9.74450        11.92056        -2.18733
O         32.33024        10.33438         2.28300
H         31.58234        10.03199         2.84000
O         32.08308         5.21642        -1.65320
H         32.09315         4.56976        -2.38890
O         32.03449         0.26435        -1.09601
H         32.69770         0.05425        -0.39653
O         28.11972        16.09946        -2.19205
H         28.24017        16.97774        -2.61351
O          9.62676         5.86096        -1.92938
H         10.14638         5.12431        -2.33721
O         18.10527        12.32554         1.33172
H         18.82046        11.88161         1.83404
O         31.84951         4.78369         1.96430
H         31.83250         5.42027         2.70889
O          7.24559        14.20243        -1.77779
H          8.10433        13.80381        -2.07425
O         35.82338        16.15786        -2.51408
H         35.84331        17.08062        -2.84800
O         12.45251        10.04432         1.96415
H         13.19692         9.43707         2.20297
O         38.68478        18.47580         1.47275
H         39.40386        18.33032         2.12256
O          8.57519         2.11988         2.05402
H          7.76472         2.61224         2.30620
O         19.77125        14.17045        -2.30355
H         19.02537        13.57991        -2.58750
O         13.92524         7.76274         1.74067
H         13.28047         7.15422         2.16388
O         34.69757        12.45236        -2.14007
H         34.27330        11.59727        -2.38885
O         11.04709        14.82306         1.95964
H         10.24658        15.27846         2.29739
O         38.73097        19.29243        -2.09871
H         39.18772        18.45142        -2.32383
O          4.87049         4.36634        -1.79053
H          5.70751         4.80295        -2.05874
O          6.35894        10.25766        -1.30127
H          5.64579        10.66659        -1.83521
O          7.25660        10.43451         2.24046
H          6.93736         9.65319         2.75186
H          0.38230         1.40812         0.58101
H          0.30262         3.87261         0.67066
H          2.53882         0.21983         0.18190
H          0.22375         5.78404         0.26145
H          0.16397         8.21628         0.31638
H          0.15457        10.16212         0.43241
H          0.16654        12.58712         0.36145
H          0.16660        14.51161         0.25024
H          0.19866        16.96006         0.14788
H          1.46034        19.12316         0.10236
H          4.95895         0.28181        -0.14802
H          3.61962        20.33728         0.10763
H          7.38854         0.28527         0.13151
H          6.08199        20.32410         0.09798
H          9.93949         0.30084         0.46162
H          8.55116        20.33859         0.08754
H         12.31004         0.24093        -0.17596
H         11.02883        20.34104         0.05099
H         14.75237         0.26751        -0.50197
H         13.49094        20.33668        -0.00294
H         17.21494         0.28180        -0.55875
H         15.94782        20.33711        -0.07290
H         19.68894         0.28942        -0.53899
H         18.41933        20.34154        -0.15615
H         22.16218         0.30507        -0.53437
H         20.88320        20.35129        -0.23137
H         24.64532         0.34591        -0.60466
H         23.36805        20.35693        -0.28684
H         27.10673         0.41860        -0.79633
H         25.86983        20.33051        -0.36980
H         29.58979         0.51892        -1.11129
H         28.34306        20.27909        -0.58373
H         32.05414         1.83142        -2.44781
H         30.81435        20.24796        -0.61640
H         34.60700         0.88236        -1.66996
H         33.28484        20.21741        -0.73199
H         37.07469         0.59250        -1.02342
H         35.74575        20.17947        -0.95236
H         39.53543         0.58001        -0.78959
H         38.05123        20.24600        -0.39833
H         41.63192         1.70871        -0.08660
H         42.80600         3.68036         0.81437
H         42.80212         6.06072         1.45202
H         42.81942         7.98352         0.99985
H         42.86123        10.38836         0.72253
H         42.88413        12.34393         0.71214
H         42.87118        14.75341         0.28476
H         42.81315        16.69263         0.64345
H         40.55394        20.34494         0.30290
H         42.68226        19.14731         0.63256
