         272
 CSIRO Nanostructure Databank - Neutral Graphene Oxide Data Set
C        -11.28124         0.61446         0.04470
C        -10.22075         1.51773         0.63200
C         -8.95764         0.77102         1.16059
C         -7.61740         1.45181         1.12397
C         -6.32252         0.72281         1.36426
C         -5.13744         1.42495         1.34783
C         -3.81219         0.77310         1.55627
C         -2.53445         1.49591         1.19841
C         -1.20060         0.78678         1.30098
C          0.06235         1.51220         1.69273
C          1.25465         0.82354         1.81053
C          2.56106         1.52801         1.97959
C          3.85982         0.71453         1.92966
C          5.18864         1.44424         1.84716
C          6.49140         0.66646         1.78287
C          7.73452         1.36816         1.26197
C          8.95172         0.62987         0.89931
C          9.88169         1.14273        -0.18768
C         11.24058         0.51011        -0.04210
C         -9.85452         2.55155        -0.46183
C         -8.75123         3.48594        -0.03746
C         -7.52155         2.77504         0.41123
C         -6.26249         3.54337         0.54097
C         -5.11115         2.91699         1.24661
C         -3.83304         3.71879         1.21829
C         -2.53570         2.97255         1.15764
C         -1.29032         3.72902         1.49415
C         -0.00741         3.00207         1.82189
C          1.29352         3.80553         1.64942
C          2.60058         3.03343         1.73081
C          3.83802         3.46963         0.93829
C          5.17477         2.92696         1.48647
C          6.41865         3.55354         0.94312
C          7.50179         2.67290         0.31326
C          8.83340         3.38537         0.08265
C          9.93928         2.65753        -0.14711
C         -8.73584         4.80888        -0.31814
C         -7.55109         5.67845        -0.06884
C         -6.27473         5.03398         0.40891
C         -4.96541         5.66830         0.11118
C         -3.79094         5.00581         0.48433
C         -2.45553         5.58271         0.19809
C         -1.27258         5.16622         1.04251
C          0.04107         5.82329         0.77944
C          1.22404         5.16252         1.01208
C          2.51184         5.75060         0.51864
C          3.79238         4.96024         0.50957
C          5.09013         5.71783         0.36036
C          6.36972         4.96934         0.41356
C          7.48792         5.43133        -0.45879
C          8.84459         4.90801        -0.04219
C         -7.41852         6.97202        -0.75081
C         -6.17969         7.56985        -0.95272
C         -4.96001         6.89901        -0.59569
C         -3.68483         7.42926        -1.09917
C         -2.39484         6.84968        -0.58352
C         -1.34642         7.87835        -0.17159
C         -0.00775         7.24887         0.29353
C          1.27424         7.93467        -0.07228
C          2.58023         7.21714         0.16173
C          3.80317         7.72485        -0.52383
C          5.15362         7.03024        -0.43659
C          5.88137         6.85806        -1.77758
C          7.25878         6.26582        -1.49471
C         -6.09687         8.92737        -1.48609
C         -4.92272         9.54478        -1.75822
C         -3.64872         8.80213        -1.72123
C         -2.33152         9.47607        -1.82235
C         -1.20789         8.97412        -1.23507
C          0.08729         9.57706        -1.49012
C          1.26008         9.10157        -1.00231
C          2.57914         9.74902        -1.39795
C          3.58761         8.63596        -1.73164
C          4.90507         9.08005        -2.33314
C          5.94494         8.23558        -2.41838
C        -11.28147        -0.72039         0.11383
C        -10.21068        -1.47168         0.80922
C         -9.01584        -0.73028         1.33248
C         -7.73230        -1.56690         1.57913
C         -6.39218        -0.75008         1.65521
C         -5.07617        -1.51001         1.57042
C         -3.78759        -0.71845         1.61790
C         -2.49867        -1.46783         1.50068
C         -1.21751        -0.70451         1.29577
C          0.06246        -1.46227         1.59689
C          1.32458        -0.59706         1.22068
C          2.57114        -1.45225         1.47636
C          3.88413        -0.77374         1.72583
C          5.18816        -1.54348         1.48490
C          6.51633        -0.86022         1.64708
C          7.76505        -1.54313         1.15606
C          9.03227        -0.76744         1.51727
C         10.39273        -1.48877         1.30470
C         11.44948        -0.61798         0.64339
C        -10.09729        -2.91233         0.52449
C         -8.86671        -3.55040         0.39101
C         -7.62276        -2.72940         0.58843
C         -6.30840        -3.40539         0.37033
C         -5.03540        -2.88434         0.97027
C         -3.85002        -3.54029         0.78968
C         -2.54637        -2.92684         1.19027
C         -1.23120        -3.66319         0.90363
C          0.00266        -2.75725         0.75366
C          1.28074        -3.38674         0.30133
C          2.55836        -2.81815         0.88122
C          3.84070        -3.51194         0.51398
C          5.18438        -2.81565         0.67842
C          6.48098        -3.54644         0.35476
C          7.79008        -2.81267         0.64284
C          9.09307        -3.37135         0.19532
C         10.26324        -2.74659         0.48653
C         -8.81196        -4.91100         0.04114
C         -7.58887        -5.59988        -0.48709
C         -6.30372        -4.79337        -0.22740
C         -5.03247        -5.55877        -0.20300
C         -3.77648        -5.02267         0.44655
C         -2.64241        -5.36116        -0.55088
C         -1.30472        -4.72019        -0.18788
C         -0.04113        -5.47496        -0.41165
C          1.33503        -4.80287        -0.27339
C          2.37130        -5.72453         0.36073
C          3.73590        -4.99549         0.35877
C          5.01160        -5.76285         0.37485
C          6.38617        -5.10959         0.44552
C          8.06545        -5.11010        -1.23738
C          9.11590        -4.71328        -0.41507
C         -7.45136        -7.05140         0.09459
C         -6.18268        -7.75203        -0.34867
C         -5.04062        -7.02350        -0.44317
C         -3.75037        -7.68489        -0.77852
C         -2.50133        -6.87677        -0.80034
C         -1.21199        -7.46904        -1.38728
C         -0.07256        -7.01879        -0.48499
C          1.13978        -7.44827        -1.29136
C          2.39167        -6.97823        -0.54169
C          3.68401        -7.58114        -0.93565
C          4.96797        -6.94167        -0.52319
C          6.12964        -6.97294        -1.50898
C          7.24775        -6.23194        -0.75246
C         -6.10802        -9.19349        -0.60303
C         -5.00190        -9.78673        -1.10993
C         -3.79684        -8.98343        -1.56230
C         -2.45248        -9.68010        -1.51384
C         -1.25009        -8.99189        -1.49545
C          0.01613        -9.64188        -1.65298
C          1.24866        -8.92435        -1.63564
C          2.48139        -9.42369        -2.04556
C          3.69958        -8.51050        -2.14325
C          5.09492        -9.12731        -2.23140
C          6.22082        -8.43427        -1.95104
O         -8.44177         1.46861         2.34392
O          0.64465         8.16313         1.23129
O         -5.43886        -4.81315        -1.40497
O          3.47372         8.15941         0.84821
O         -0.10659        -7.58456         0.81150
H         -1.04206        -7.73884         1.07663
O          6.01128         1.18883         3.02598
O          2.42531        -2.62760         2.33924
O         -7.12914         5.71744         1.36237
O         -3.58591        -5.67595         1.70770
O        -10.82145         2.23031         1.72331
H        -10.16826         2.26293         2.45985
O         -1.12138        -0.01120         0.02657
O          1.76438        -4.68120        -1.64549
H          1.16678        -4.03246        -2.08029
O         -2.02422         5.61040        -1.23285
O          2.76433         2.49839         3.05616
O          9.28482         0.75101        -1.44462
H          8.40791         1.23614        -1.50204
O         -0.63996        -4.63091        -1.46933
O         -6.87164        -2.42824        -0.61098
O         -1.59118         4.82161         2.41216
O          5.95051         5.85097         1.52089
O         -4.64045         3.62734         2.43115
O         -2.47568        -2.45269         2.57972
O          8.94253        -0.33697         2.87445
O          5.75949        -6.17406        -2.63894
H          5.01553        -6.61611        -3.11966
O          3.82124        -4.10771        -0.79739
O         -2.82503        -7.69326         0.37459
O          2.98647         5.04037        -0.71205
O          6.10226         3.60338         2.36648
O          8.81596         1.50526         2.15676
O          5.93026        -1.62639         2.73820
O          6.98128        -5.39298         1.67715
H          6.68908        -6.28912         1.96069
O          7.03923         2.15502        -0.85843
O          2.93445        -8.11731         0.19703
O         -5.72979        -1.27006         2.84747
O          5.79715        -2.76633        -0.65882
O          0.62447         3.66379         2.93744
O         -3.69960         0.10201         2.83844
O         -2.53658         2.20438        -0.09079
O         -9.37745         1.79560        -1.58337
H         -8.90382         2.39423        -2.19710
O         -7.37569        -6.92980         1.54990
H         -2.71581        -5.39338         2.08466
O          6.00427         7.94679         0.27369
H          5.58917         8.12123         1.14682
O         -0.74926        -6.93673        -2.68182
O          0.49277        -2.53487        -0.58931
O         -6.53381         2.78613        -0.69069
O          3.85513        -0.20033         3.06283
O         -1.92070         8.61031         0.87899
O         -7.91357        -2.23818         2.83331
H         -8.07767        -1.56599         3.52802
O        -10.07939        -1.12041         2.25178
O         -4.04501        -8.65013        -2.96411
H         -3.21578        -8.29762        -3.35162
O         -3.69806         7.58419        -2.56533
O          1.99759        -6.07570         1.68509
H          2.27536        -7.00714         1.83916
O          0.78608        -6.80453        -2.58172
O          0.05933        -1.74910         2.99170
H          0.92362        -2.16340         3.23334
O         -1.00102        -4.47043         2.09563
H         -1.07195        -3.85643         2.86794
O          5.17397        -7.10388         0.92306
O          3.75036         2.68789        -0.28938
H          3.34955         3.25581        -0.99056
O          1.45149        -0.31834        -0.19070
H          0.55410        -0.10065        -0.55087
O         10.89673        -1.87920         2.60009
H         10.35856        -1.37768         3.26389
O          3.06665        10.58789        -0.35467
H          3.14058        10.04152         0.46248
O          2.93088         7.79966        -2.72360
H          3.52921         7.03295        -2.90870
O          7.55089        -4.29810        -2.16052
H          8.05375        -3.45960        -2.19543
O          3.53841        -7.69242        -3.34524
H          2.62595        -7.31883        -3.35543
O          5.10774         5.96052        -2.61291
H          5.63803         5.73708        -3.40617
O         -7.77443        -5.74994        -1.90829
H         -6.93625        -5.44718        -2.33641
O         -8.58418        -6.22942         1.93940
H         -8.29002        -5.71529         2.73239
O         -3.04936        -4.77030        -1.79452
H         -2.25205        -4.71160        -2.37087
O          9.18102         5.49036         1.22282
H          8.38281         5.49932         1.79326
H         12.47506        -1.01120         0.72423
H         12.08914         1.03229        -0.51130
H         10.89202         3.14962        -0.39927
H          9.63399         5.21340        -0.77405
H          8.09878         6.57766        -2.13774
H          6.87978         8.54996        -2.90891
H          4.96197        10.08237        -2.78472
H          2.41775        10.39066        -2.30017
H          0.10315        10.43865        -2.17753
H         -2.25220        10.34617        -2.49420
H         -4.90774        10.60459        -2.05192
H         -7.04144         9.48277        -1.58351
H         -8.32723         7.46996        -1.12217
H         -9.62715         5.28048        -0.76210
H        -10.77452         3.13494        -0.74425
H        -12.11163         1.13037        -0.46065
H        -12.09432        -1.30315        -0.34491
H        -11.02185        -3.47687         0.32776
H         -9.77279        -5.41465        -0.15537
H         -8.35974        -7.64647        -0.17615
H         -6.98989        -9.80283        -0.35442
H         -4.99864       -10.87231        -1.29009
H         -2.43241       -10.77458        -1.63750
H          0.02867       -10.72486        -1.84876
H          2.55858       -10.46616        -2.39148
H          5.17535       -10.17186        -2.57179
H          7.20187        -8.92261        -2.06119
H          7.82981        -6.90993        -0.09971
H          9.53909        -5.49558         0.23772
H         11.20486        -3.21781         0.16887
