         349
 CSIRO Nanostructure Databank - Neutral Graphene Oxide Data Set
C          1.34530         3.48293        -1.02184
C          0.12451         4.03073        -0.68188
C          1.16135         6.23654        -0.39345
C          0.04226         5.39027        -0.33680
C          0.96521         7.56445         0.32978
C         -0.24335         8.41944         0.01114
C          0.85166        10.64841        -0.24877
C         -0.29600         9.77866        -0.18560
C          0.85881        12.12452        -0.10723
C         -0.36929        12.90716         0.17313
C          0.91916        14.93719         0.85870
C         -0.33604        14.20926         0.51280
C          1.00007        16.41323         0.75045
C         -0.17496        17.16625         0.76182
C          1.07907        19.19238         0.29744
C         -0.13653        18.54007         0.53261
C          0.96849        20.67164        -0.02568
C          0.38445        21.42948         1.15019
C          1.01599        23.52492         0.02837
C          0.37754        22.76930         1.18048
C          1.15099        25.02012         0.26246
C         -0.00487        25.79288         0.45689
C          1.29307        27.84944         0.36365
C          0.07156        27.18405         0.55851
C          1.41379        29.29873         0.49048
C          3.76021         3.68001        -1.36409
C          2.51175         4.29718        -1.09922
C          3.62498         6.49740        -1.19323
C          2.40672         5.71094        -0.85986
C          3.60993         8.04883        -1.22155
C          2.37971         8.87149        -1.10671
C          3.20544        10.71085         0.36253
C          2.13182        10.04507        -0.34120
C          3.40218        12.04986         0.45865
C          2.19588        12.84006         0.15780
C          3.51512        14.90748         0.72041
C          2.20645        14.19373         0.78651
C          3.49132        16.30390         0.51195
C          2.26449        17.05071         0.52570
C          3.55473        19.17849         0.16061
C          2.28797        18.46897         0.30723
C          3.56075        20.58065        -0.06221
C          2.30223        21.30479        -0.54497
C          3.53290        23.43680        -0.21467
C          2.34099        22.80615        -0.23291
C          3.63310        24.87724         0.11535
C          2.38984        25.67251         0.14546
C          3.71971        27.75891        -0.16871
C          2.46153        27.08480         0.11514
C          3.66818        29.22529        -0.54931
C          2.54661        29.95039         0.15664
C          6.23302         3.72007        -1.45482
C          4.98287         4.40555        -1.32506
C          6.23183         6.54732        -1.01372
C          4.93063         5.81861        -1.22181
C          6.27731         8.03529        -1.31953
C          4.94668         8.73896        -1.06993
C          6.18504        10.66037        -0.02419
C          5.10269         9.82153        -0.12845
C          6.02529        12.12853         0.36262
C          4.68759        12.65395         1.07074
C          5.97342        14.90244         0.93962
C          4.71425        14.18418         0.90696
C          6.01487        16.24812         0.60145
C          4.77648        16.95888         0.07463
C          5.99632        19.18124         0.20618
C          4.78118        18.46913         0.22720
C          6.00123        20.58564         0.08310
C          4.78619        21.26800        -0.12054
C          6.06969        23.45272        -0.52869
C          4.76823        22.68528        -0.65943
C          6.12523        24.80964        -0.52148
C          4.94044        25.59502        -0.07752
C          6.18155        27.76501        -0.37957
C          4.88970        27.06074        -0.27100
C          6.19300        29.24363        -0.51782
C          5.00014        29.92488        -0.47589
C          8.73959         3.71016        -1.56885
C          7.48208         4.40463        -1.47813
C          8.75230         6.53959        -1.30799
C          7.48128         5.81304        -1.40523
C          8.74554         8.01821        -1.00602
C          7.47463         8.74914        -0.85521
C          8.64444        10.70711         0.11957
C          7.44359        10.06962        -0.41338
C          8.53783        11.89548         0.88737
C          7.26856        12.66289         1.08879
C          8.50860        14.98262         1.33106
C          7.24072        14.18708         1.32563
C          8.56067        16.32809         0.88389
C          7.30334        16.96707         0.42462
C          8.53500        19.23648         0.46540
C          7.29341        18.45541         0.20875
C          8.56126        20.58970         0.26818
C          7.27343        21.38839         0.26088
C          8.63862        23.35008        -0.66336
C          7.31514        22.64117        -0.60475
C          8.66089        24.82478        -0.85078
C          7.33162        25.52087        -1.11193
C          8.60510        27.75027        -1.18172
C          7.40953        26.98679        -0.71521
C          8.65184        29.21203        -0.93724
C          7.45696        29.90329        -0.66360
C         11.22205         3.66319        -1.30903
C          9.97052         4.36177        -1.35262
C         11.17832         6.40096        -0.68114
C          9.99502         5.76894        -1.07938
C         11.10486         7.73994        -0.03553
C          9.87728         8.55654        -0.20566
C         11.06269        10.59843         0.56144
C          9.86928         9.99453         0.12889
C         10.99483        11.89073         1.11960
C          9.72379        12.32146         1.51020
C         10.99960        14.99323         1.51319
C          9.71177        14.44906         1.79150
C         11.01142        16.39757         1.26426
C          9.76620        17.04522         0.98323
C         11.01942        19.29019         1.17235
C          9.72940        18.52455         0.97459
C         11.01073        20.71508         0.77923
C          9.81562        21.34909         0.33487
C         11.02386        23.53397         0.06509
C          9.81468        22.70114        -0.06538
C         11.14579        24.76415        -0.82204
C          9.83423        25.51181        -0.89251
C         11.15000        27.70406        -1.03962
C          9.89560        26.96503        -1.19944
C         11.13378        29.13043        -1.09883
C          9.89735        29.85174        -1.04640
C         13.69489         3.51088        -0.94444
C         12.41274         4.31145        -1.02554
C         13.64730         6.39936        -0.40508
C         12.42225         5.70687        -0.69794
C         13.62079         7.90745        -0.21699
C         12.36800         8.37054         0.52890
C         13.46793        10.53993         1.02467
C         12.34079         9.89181         0.61711
C         13.44878        11.95566         1.59679
C         12.24741        12.73975         1.06707
C         13.44236        14.88157         1.38796
C         12.20730        14.21142         1.48518
C         13.45866        16.31772         1.38583
C         12.27451        17.08127         1.29262
C         13.50981        19.21170         1.10004
C         12.31281        18.53762         1.19218
C         13.58020        20.68868         1.08610
C         12.23985        21.46576         0.97793
C         13.58512        23.47750         0.03843
C         12.27915        22.90346         0.56617
C         13.57274        25.01960         0.17264
C         12.34351        25.62382        -0.47816
C         13.61122        27.72562        -0.77781
C         12.35728        26.99661        -0.75291
C         13.60033        29.13431        -1.00527
C         12.36704        29.82512        -1.09174
C         16.13392         3.83422        -1.34330
C         14.94615         4.36246        -0.96405
C         16.10441         6.42211        -0.16823
C         14.87650         5.75119        -0.51478
C         16.03164         7.62549         0.74146
C         14.82212         8.46861         0.49056
C         15.98915        10.55797         1.19170
C         14.71780         9.73923         1.29521
C         15.96526        11.96554         1.26019
C         14.73471        12.72243         1.34141
C         15.95521        14.84842         1.15310
C         14.70539        14.11912         1.29933
C         15.99314        16.25778         1.14766
C         14.76320        17.01177         1.44398
C         16.06074        19.18521         0.85390
C         14.80239        18.52061         1.27557
C         16.05054        20.63581         0.62778
C         14.83535        21.34821         0.73144
C         16.10515        23.55230         0.34508
C         14.82403        22.82913         0.63689
C         16.02914        24.91350        -0.25590
C         14.85889        25.61778        -0.36516
C         16.05349        27.72762        -0.97095
C         14.84752        27.02618        -0.73484
C         16.04850        29.13650        -1.13623
C         14.84118        29.82293        -1.13526
C         18.64244         3.85226        -1.20455
C         17.38731         4.66405        -1.39834
C         18.55428         6.48241        -0.04241
C         17.32469         5.85938        -0.47203
C         18.54880         7.79629         0.52803
C         17.29425         8.46771         0.76341
C         18.47372        10.56655         1.36134
C         17.22285         9.82855         1.07883
C         18.45416        12.03226         1.23834
C         17.21385        12.70286         1.18394
C         18.41544        14.84412         1.00758
C         17.18668        14.12558         1.09941
C         18.40333        16.25105         0.80220
C         17.20621        16.97470         0.90888
C         18.50084        19.08945         0.50682
C         17.22478        18.43390         0.76363
C         18.58365        20.60448         0.56991
C         17.26878        21.31798         0.35638
C         18.50114        23.36830        -0.25965
C         17.32896        22.73590         0.14159
C         18.56282        24.84667        -0.33587
C         17.28812        25.52012        -0.71916
C         18.61053        27.70534        -1.10757
C         17.31512        26.97780        -1.08907
C         18.60511        29.09757        -1.30766
C         17.33009        29.91326        -1.35429
C         19.76372         4.41837        -0.71809
C         20.99098         6.43135         0.07448
C         19.77882         5.79380        -0.23549
C         20.99595         7.75069         0.52229
C         19.79553         8.44042         0.76234
C         21.00580        10.67771         1.05446
C         19.81142         9.83712         1.25623
C         20.93847        12.02683         1.12596
C         19.68289        12.74853         1.22155
C         20.86551        14.95292         1.32534
C         19.66321        14.15664         1.14142
C         20.87417        16.27199         1.04548
C         19.68993        16.88362         0.33569
C         20.92679        19.05870         0.06356
C         19.67075        18.38735         0.35913
C         20.97610        20.37062        -0.24719
C         19.71152        21.13980        -0.30500
C         20.93865        23.35085        -0.95952
C         19.69858        22.60411        -0.65334
C         21.02133        24.69354        -0.92449
C         19.85363        25.55413        -0.60781
C         21.03654        27.70211        -1.17925
C         19.83501        26.99656        -1.02395
C         21.02924        29.07844        -1.41800
C         19.82386        29.77574        -1.46456
O          7.44101        17.53991        -0.95296
O         10.13085        19.01862         2.31719
O          2.34527        21.16477        -1.95525
O          8.05847        22.59845        -1.83858
O          4.50296        25.16296         1.27009
O         12.90425        21.25800         2.26522
O          5.60802         8.78170        -2.36490
O         15.52630        23.51681         1.71718
O         19.35912        21.54581        -1.65366
O          1.66966        12.77199        -1.18838
O          7.12442        27.27242         0.67435
O          1.70644         7.83112         1.26745
O         19.32665        25.43607         0.77799
O          7.07171        13.22511         2.40476
O         14.91036        17.89732         2.61031
O          9.67170        13.27179         2.52866
O          9.00950         7.59540        -2.37636
O          3.50482         7.32584        -2.49387
O         19.16986        10.05270         2.55482
O         11.48822        23.75590         1.43878
O          1.53158        14.32858         2.07549
O         10.06208         7.72992         1.02361
O          4.16032         9.85147         0.89765
O         17.26406        25.92276        -2.13239
O          9.16692        27.32792        -2.44635
O         18.99607        20.93736         1.93817
H         18.26807        20.68426         2.54491
O          4.69617        12.32420         2.45922
H          4.61614        11.35014         2.54414
O         15.91159         7.06435         2.10194
H         15.73547         7.83190         2.70169
O          3.31428        29.25285        -1.98206
H          2.43359        28.82872        -2.06876
O         17.25576        30.61564        -2.60891
H         17.20888        29.95127        -3.32686
O         14.61206         9.34766         2.73274
H         13.80386         8.76403         2.76802
O          4.65453        22.52098        -2.10666
H          3.80246        22.00472        -2.27020
O         13.52111         8.49763        -1.55428
H         14.28834         8.18818        -2.08053
O         12.50870        12.84084        -0.37491
H         11.75502        13.30366        -0.79722
O         13.67651         2.74134         0.27716
H         13.70188         3.36781         1.02988
O         11.38509        24.24807        -2.18567
H         11.21111        24.97486        -2.82270
O         12.48996         7.87624         1.89277
H         11.56922         7.82137         2.24570
O          7.20186        21.94109         1.61610
H          7.25564        21.20437         2.26081
O          4.83511        16.72856        -1.38345
H          5.71608        17.07105        -1.67747
O          1.45884         8.55698        -2.02674
H          1.89301         7.89246        -2.63686
O         17.46250         5.19911        -2.77255
H         18.32290         5.66323        -2.85284
O         13.52038        25.37845         1.57506
H         14.23995        24.87936         2.03320
O          6.35846         6.62388         0.48988
H          6.35873         5.70207         0.83004
O          5.99272        12.79662        -0.93525
H          6.57903        12.31955        -1.55981
O          0.04175        20.75256        -1.13956
H          0.66345        20.75826        -1.93017
O         13.30793        11.79971         3.02621
H         13.92200        11.07854         3.30837
O         19.83242        16.51958        -1.08444
H         19.85771        15.54001        -1.13091
O          7.10801        25.48854        -2.54500
H          7.09926        24.54560        -2.82419
O         13.69672        23.10699        -1.35744
H         12.93630        23.49319        -1.86672
O          0.16293        23.43319        -1.13076
H         -0.05873        22.47346        -1.26783
H          1.43520         2.40674        -1.22741
H         -0.77462         3.40178        -0.62945
H         -0.91541         5.78909         0.02639
H         -1.20261         7.87845        -0.02456
H         -1.29281        10.23730        -0.29478
H         -1.33958        12.41022         0.02029
H         -1.28998        14.74351         0.63262
H         -1.14282        16.67946         0.94019
H         -1.06914        19.11968         0.51156
H         -0.06776        20.85131         1.97243
H         -0.06893        23.31567         2.02593
H         -0.97870        25.29170         0.54640
H         -0.83727        27.77009         0.75885
H          0.55644        29.85047         0.90601
H          3.78679         2.59311        -1.52700
H          2.61615        31.04304         0.26704
H          6.22301         2.62420        -1.54506
H          5.00201        31.02274        -0.56842
H          8.73087         2.62031        -1.71879
H          7.48438        31.00224        -0.60141
H         11.23229         2.58139        -1.50963
H          9.94278        30.94829        -0.96374
H         13.73063         2.76776        -1.78102
H         12.36862        30.92160        -1.17744
H         16.18700         2.79369        -1.69945
H         14.83631        30.91082        -1.29502
H         18.65375         2.81607        -1.57454
H         17.39736        30.70870        -0.56307
H         20.70221         3.84604        -0.66220
H         21.93951         5.89186        -0.05666
H         21.95890         8.23358         0.73571
H         21.97305        10.19842         0.84805
H         21.86059        12.60953         0.99294
H         21.75163        14.48024         1.77220
H         21.77490        16.86989         1.24177
H         21.84537        18.45777         0.01904
H         21.91742        20.83593        -0.57077
H         21.82062        22.76655        -1.25906
H         21.97260        25.17545        -1.19348
H         21.99900        27.17847        -1.10198
H         21.97991        29.61455        -1.54341
H         19.81666        30.86130        -1.63402
