         640
 CSIRO Nanostructure Databank - Neutral Graphene Oxide Data Set
C         22.92057        27.41377         0.32553
C         22.91259        28.77567         0.11297
C         22.93884        31.72119        -0.18898
C         22.96779        33.10681        -0.13782
C         23.02259        36.04153         0.10309
C         23.02846        37.41915         0.09985
C         23.07455        40.35075        -0.19553
C         23.06459        41.70105        -0.15538
C         23.28766        44.57327        -0.86757
C         23.39375        45.90417        -1.25309
C         25.38770        24.59883         0.54158
C         24.18647        25.27955         0.57488
C         25.36244        27.38144         0.13423
C         24.14054        26.68175         0.35091
C         25.32556        28.77735        -0.14249
C         24.11865        29.49932        -0.12692
C         25.35862        31.67690        -0.21364
C         24.12991        30.96342        -0.22342
C         25.38919        33.07539        -0.03833
C         24.18608        33.81554        -0.01897
C         25.45770        35.96614         0.02888
C         24.22420        35.27996         0.05377
C         25.47922        37.40988         0.04400
C         24.24830        38.15512         0.06280
C         25.52289        40.27646         0.13842
C         24.28140        39.57731         0.02197
C         25.55486        41.69638         0.14609
C         24.26874        42.48781         0.27849
C         25.61040        44.55454        -0.13812
C         24.37954        43.88340        -0.30518
C         25.69842        45.95361        -0.44877
C         24.58790        46.63079        -1.01732
C         25.83080        48.74050        -0.95065
C         24.70092        48.03188        -1.28863
C         27.90862        23.13056         0.07978
C         27.88949        24.53919         0.21415
C         26.62167        25.27460         0.33462
C         27.85326        27.40670         0.03822
C         26.60717        26.67552         0.18686
C         27.85622        28.72289        -0.31985
C         26.58508        29.44412        -0.50973
C         27.91575        31.65472        -0.38113
C         26.61421        30.95618        -0.49945
C         27.92737        33.04624        -0.17960
C         26.69202        33.75713         0.32104
C         27.92036        35.89367        -0.07464
C         26.70672        35.23835         0.02191
C         27.99457        37.39012        -0.24156
C         26.70351        38.10214         0.07399
C         28.00102        40.16895         0.39112
C         26.74807        39.51021         0.21783
C         28.05045        41.63430         0.24357
C         26.78369        42.40376         0.20498
C         28.03321        44.57606         0.49657
C         26.79301        43.81255         0.23278
C         27.86943        46.04949         0.67627
C         26.85942        46.70886        -0.08819
C         28.13946        48.82994         0.08276
C         26.94113        48.10958        -0.30763
C         28.36530        50.18792        -0.24722
C         30.34881        23.10689        -0.01201
C         29.10348        22.43972        -0.03076
C         30.35451        24.52932         0.08950
C         29.11781        25.22597         0.18208
C         30.37987        27.39652        -0.06155
C         29.13097        26.71164         0.43171
C         30.38152        28.74770        -0.36609
C         29.10436        29.42932        -0.78906
C         30.35686        31.58095        -0.65281
C         29.11998        30.91863        -0.52756
C         30.33176        33.05079        -0.77586
C         29.12903        33.77540        -0.33828
C         30.42217        35.90036        -0.17059
C         29.16553        35.17991        -0.18431
C         30.46109        37.29057         0.15648
C         29.16479        37.95174         0.56274
C         30.45196        40.10978         0.70856
C         29.21752        39.45823         0.51385
C         30.41071        41.51244         1.29191
C         29.34859        42.33173         0.56778
C         30.57060        44.38811         1.35596
C         29.32556        43.82425         0.76108
C         30.67068        45.72947         1.74742
C         28.82035        46.84479         1.28043
C         30.42556        48.75075         1.13908
C         29.14423        48.16544         0.85696
C         30.54547        50.12695         0.87643
C         29.50983        50.82164         0.19195
C         32.82447        20.26069        -0.09606
C         31.63064        20.96173        -0.10921
C         32.83815        23.07619        -0.04239
C         31.60381        22.37500        -0.06636
C         32.85205        24.51590         0.03635
C         31.60907        25.24837         0.10019
C         32.84038        27.40257         0.00670
C         31.61324        26.67321         0.03597
C         32.84900        28.78662        -0.20772
C         31.60984        29.47596        -0.46992
C         32.86802        31.59275        -1.06405
C         31.58755        30.87505        -0.69221
C         32.89634        33.06434        -0.70957
C         31.64604        33.81736        -0.79966
C         32.88677        35.89791        -0.26181
C         31.64224        35.22395        -0.38684
C         32.90894        37.30678        -0.02523
C         31.66628        37.99696         0.19261
C         32.90110        40.14023         0.37537
C         31.68402        39.42721         0.47426
C         32.95060        41.55641         0.65088
C         31.82682        42.19620         1.43422
C         32.99095        44.42514         1.17855
C         31.78910        43.69696         1.20757
C         32.99882        45.84060         1.25179
C         31.79282        46.52524         1.55458
C         32.96640        48.71733         1.39944
C         31.66154        48.02825         1.77605
C         32.97587        50.10781         1.41399
C         31.75925        50.85439         1.25854
C         32.99987        52.96574         1.47014
C         31.78255        52.23933         1.34082
C         35.36115        18.79279         0.03551
C         35.32182        20.20317         0.00161
C         34.06758        20.92828        -0.04340
C         35.31903        23.05873        -0.02127
C         34.07387        22.35473        -0.03335
C         35.32282        24.49001        -0.02412
C         34.08056        25.19704         0.05953
C         35.36907        27.38878         0.29291
C         34.05327        26.64331         0.49860
C         35.35793        28.87937         0.09170
C         34.07941        29.56248        -0.18456
C         35.34472        31.63243        -0.60434
C         34.10642        30.88953        -0.56823
C         35.35005        33.03360        -0.64662
C         34.09104        33.75077        -0.58435
C         35.34310        35.88944        -0.45256
C         34.11251        35.18798        -0.42984
C         35.36529        37.30524        -0.26865
C         34.14450        37.99863        -0.02259
C         35.33006        40.14717        -0.03312
C         34.14409        39.44585         0.10526
C         35.29703        41.61698        -0.06737
C         34.10522        42.28590         0.47672
C         35.47294        44.45567         0.65030
C         34.28211        43.64561         1.13477
C         35.46550        45.87698         0.78055
C         34.23458        46.58460         1.09337
C         35.40156        48.73102         0.77622
C         34.18654        47.97786         1.17102
C         35.42413        50.22351         0.95339
C         34.26531        50.83565         1.70280
C         35.48993        53.04057         1.49442
C         34.21796        52.33146         1.53477
C         35.53475        54.42847         1.65096
C         37.80072        18.77360         0.07298
C         36.56581        18.10150         0.06855
C         37.79449        20.20619         0.06629
C         36.55454        20.91744         0.02220
C         37.79614        23.06036        -0.02965
C         36.55926        22.35074        -0.00189
C         37.79692        24.49009        -0.18022
C         36.55694        25.18056        -0.13975
C         37.84277        27.33498        -0.26672
C         36.49423        26.66020        -0.43299
C         37.87033        28.83541        -0.26619
C         36.60066        29.55902        -0.31342
C         37.83400        31.64181        -0.76960
C         36.59869        30.92288        -0.57734
C         37.81768        33.05697        -0.83131
C         36.58057        33.76237        -0.71211
C         37.79852        35.90616        -0.81160
C         36.57923        35.18304        -0.65573
C         37.79876        37.34568        -0.66673
C         36.61770        38.00784        -0.34347
C         37.85628        40.23324        -0.35303
C         36.65579        39.44364         0.12634
C         37.84538        41.60127        -0.33342
C         36.58360        42.36869        -0.17175
C         37.87885        44.49363         0.09552
C         36.63611        43.79841         0.23017
C         37.90290        45.90000         0.34492
C         36.68152        46.59750         0.59420
C         37.88644        48.76194         0.56847
C         36.69317        48.03240         0.65641
C         37.89739        50.21356         0.72349
C         36.71675        50.92352         1.00391
C         37.94089        53.05753         1.12842
C         36.71754        52.33184         1.24625
C         37.93551        54.47742         1.26600
C         36.73848        55.13433         1.52909
C         40.28938        15.92132         0.26907
C         39.10347        16.59851         0.04079
C         40.26300        18.74072         0.03528
C         39.06504        18.03962         0.02619
C         40.27047        20.18924         0.26562
C         39.01558        20.93932         0.12681
C         40.28836        23.07496        -0.06243
C         39.03658        22.34963         0.03289
C         40.27488        24.49089        -0.29997
C         39.04252        25.17070        -0.38187
C         40.32052        27.35090        -0.66290
C         39.02518        26.59983        -0.85786
C         40.30673        28.78660        -0.72537
C         39.10043        29.52554        -0.67375
C         40.29317        31.65085        -1.06223
C         39.07660        30.93341        -0.84642
C         40.28126        33.07210        -1.17780
C         39.03594        33.79024        -1.02338
C         40.21432        35.95428        -1.52366
C         39.00143        35.19752        -1.05810
C         40.25729        37.39532        -1.07255
C         39.05687        38.08958        -0.79369
C         40.29093        40.23039        -0.86168
C         39.07255        39.50380        -0.67109
C         40.31217        41.65531        -0.80650
C         39.00919        42.40990        -0.84952
C         40.31135        44.48539        -0.22029
C         39.08154        43.81027        -0.26601
C         40.34076        45.86783         0.14467
C         39.14483        46.60620         0.30995
C         40.32995        48.78402         0.27409
C         39.14181        48.05767         0.41290
C         40.34720        50.22417         0.35278
C         39.12657        50.94129         0.64695
C         40.39867        53.07159         0.74823
C         39.15126        52.34506         0.82185
C         40.43731        54.45370         0.96245
C         39.17551        55.28335         0.95583
C         40.54079        57.14620         1.89836
C         39.33220        56.55309         1.76308
C         42.73199        15.99154         0.70846
C         41.52573        16.60337         0.30996
C         42.80741        18.77738         0.12142
C         41.55689        18.00799        -0.21285
C         42.81555        20.22549        -0.28888
C         41.57060        20.94827         0.20789
C         42.75528        23.09575        -0.19785
C         41.52708        22.40395        -0.03488
C         42.74365        24.49773        -0.39234
C         41.52436        25.19698        -0.46199
C         42.77404        27.37183        -0.57335
C         41.52104        26.64607        -0.60001
C         42.76619        28.80325        -0.67735
C         41.53748        29.50698        -0.80314
C         42.76220        31.61247        -1.09832
C         41.53506        30.92273        -1.00174
C         42.76080        33.01385        -1.63765
C         41.49836        33.79394        -1.34361
C         42.72381        35.93600        -1.40942
C         41.51532        35.19933        -1.35428
C         42.72183        37.34796        -1.33237
C         41.49004        38.08526        -1.14873
C         42.73944        40.22411        -1.22563
C         41.51327        39.51144        -1.05411
C         42.75618        41.65992        -1.10370
C         41.52479        42.36534        -0.85045
C         42.78048        44.45295        -0.55136
C         41.55850        43.78605        -0.56356
C         42.94660        45.80398         0.10660
C         41.63380        46.55229         0.33151
C         42.82768        48.75837        -0.20047
C         41.62154        48.06329         0.28021
C         42.72656        50.21214        -0.31443
C         41.54308        50.92566         0.19788
C         42.83163        53.03191         0.34060
C         41.62610        52.35022         0.42603
C         42.97425        54.41452         0.90587
C         41.67483        55.15557         1.03917
C         43.03052        57.16981         1.45325
C         41.74892        56.48772         1.44466
C         43.90569        16.71487         0.82062
C         45.19636        18.88839         0.73970
C         43.95293        18.13037         0.54749
C         45.21952        20.30032         0.53177
C         44.04300        20.99741         0.12165
C         45.23194        23.14326         0.19008
C         44.01830        22.38791         0.00475
C         45.25259        24.54511        -0.02744
C         44.05264        25.20029        -0.67306
C         45.21084        27.41466        -0.32047
C         43.99733        26.69216        -0.45893
C         45.21284        28.84080        -0.42187
C         43.98846        29.52767        -0.65115
C         45.22034        31.67201        -0.83294
C         43.98538        30.94530        -0.86598
C         45.20606        33.10851        -1.05057
C         44.02585        33.76998        -1.34590
C         45.25026        35.96648        -1.34741
C         44.01475        35.21728        -1.75606
C         45.21929        37.36221        -1.35823
C         43.95901        38.07445        -1.39178
C         45.20932        40.19588        -1.64133
C         43.94218        39.48447        -1.40896
C         45.22396        41.71277        -1.54977
C         43.96654        42.38880        -1.18969
C         45.22255        44.51778        -1.01576
C         43.99784        43.77999        -0.90793
C         45.18848        45.95489        -0.94787
C         44.05278        46.63852        -0.52782
C         45.21890        48.83928        -0.84398
C         44.01282        48.08701        -0.53182
C         45.24896        50.25156        -0.74669
C         43.98648        50.97714        -0.53382
C         45.05823        53.15513        -0.93892
C         44.13586        52.36410         0.03336
C         45.11755        54.65185        -0.60967
C         44.02738        55.28618         0.23285
C         44.13159        56.62760         0.87168
C         47.55724        18.96983         1.34980
C         46.38242        18.25497         1.14897
C         47.60698        20.36750         1.16823
C         46.41777        21.04247         0.76649
C         47.63414        23.19661         0.74726
C         46.42600        22.46178         0.57398
C         47.63736        24.61031         0.56543
C         46.42752        25.28795         0.18013
C         47.59789        27.48226         0.21051
C         46.43251        26.72928        -0.01405
C         47.63617        28.89214        -0.00830
C         46.43338        29.57553        -0.33439
C         47.67071        31.72107        -0.51951
C         46.43133        30.99711        -0.55699
C         47.67773        33.13124        -0.73021
C         46.46156        33.83716        -0.97075
C         47.70022        35.97635        -1.03032
C         46.46414        35.24919        -1.12488
C         47.70458        37.37316        -1.17065
C         46.46478        38.10096        -1.29226
C         47.75292        40.24595        -1.64713
C         46.46973        39.48196        -1.43594
C         47.70717        41.69773        -1.20597
C         46.50827        42.39485        -1.25660
C         47.70830        44.52207        -1.16361
C         46.47897        43.83228        -1.14852
C         47.72688        45.96905        -1.39062
C         46.39536        46.70869        -1.33455
C         47.67084        48.83623        -1.19134
C         46.45201        48.15803        -1.10941
C         47.67445        50.32498        -1.40869
C         46.41737        51.01149        -0.94345
C         47.61102        53.15247        -0.89220
C         46.40900        52.43709        -0.90236
C         47.57758        54.59948        -0.88092
C         46.42723        55.31095        -0.75689
C         50.03531        20.48281         1.73518
C         48.83163        21.11814         1.35141
C         50.06329        23.25908         1.24705
C         48.84393        22.52474         1.12379
C         50.06847        24.68288         1.04666
C         48.84299        25.33566         0.76266
C         50.10836        27.56611         0.74892
C         48.79181        26.80202         0.73610
C         50.11079        28.95334         0.26120
C         48.88401        29.62024         0.02094
C         50.13853        31.71789        -0.31772
C         48.89512        31.02044        -0.27488
C         50.15784        33.13476        -0.52932
C         48.92316        33.84763        -0.69490
C         50.16786        35.96826        -0.78434
C         48.93220        35.25627        -0.83220
C         50.19251        37.39048        -0.88839
C         48.93912        38.11810        -1.07339
C         50.16636        40.20850        -0.62134
C         48.94088        39.49409        -1.12677
C         50.15926        41.70281        -0.79349
C         48.94836        42.39276        -0.96411
C         50.15321        44.56948        -0.87954
C         48.95136        43.84383        -0.99914
C         50.17357        46.00747        -0.95306
C         48.95954        46.72621        -1.15118
C         50.15310        48.86162        -0.92432
C         48.93244        48.13783        -1.14554
C         50.13372        50.30806        -0.82315
C         48.92209        51.03000        -0.95644
C         50.08657        53.11163        -0.50647
C         48.88096        52.43290        -0.80330
C         51.21866        21.18861         1.83250
C         52.52461        23.29756         1.57112
C         51.27229        22.57861         1.56666
C         52.54783        24.69421         1.27520
C         51.31521        25.40145         1.05467
C         52.57569        27.46553         0.52907
C         51.36158        26.79565         0.75833
C         52.59454        28.88577         0.23386
C         51.35192        29.61220         0.11437
C         52.61613        31.69753        -0.25614
C         51.36809        31.01153        -0.15930
C         52.63880        33.10476        -0.47409
C         51.39418        33.82514        -0.58003
C         52.62127        35.96258        -0.76793
C         51.39694        35.25229        -0.70693
C         52.64258        37.37231        -0.81528
C         51.41290        38.07492        -0.90666
C         52.65301        40.24556        -0.59942
C         51.43268        39.56227        -1.17214
C         52.59632        41.68077        -0.42917
C         51.38748        42.38256        -0.57142
C         52.68945        44.53430        -0.64834
C         51.37388        43.87136        -0.32670
C         52.72160        46.01731        -0.98418
C         51.38813        46.73011        -0.83762
C         52.61123        48.88368        -0.52169
C         51.37336        48.14756        -0.76419
C         52.59671        50.30227        -0.47539
C         51.33953        51.02098        -0.57579
C         51.28262        52.42393        -0.41663
C         54.95878        23.29299         1.70515
C         53.75394        22.63113         1.80358
C         55.01895        24.67705         1.38765
C         53.79116        25.38245         1.19398
C         55.02654        27.43445         0.62276
C         53.82199        26.76824         0.76536
C         55.07286        28.73725        -0.11574
C         53.81159        29.55626         0.03779
C         55.08095        31.66788        -0.34608
C         53.84672        30.97100        -0.18804
C         55.11674        33.07640        -0.50568
C         53.88182        33.77354        -0.59891
C         55.18259        35.99307        -0.72884
C         53.87637        35.21424        -0.87850
C         55.09034        37.42908        -0.42560
C         53.87896        38.10220        -0.58623
C         54.95097        40.22076         0.34264
C         53.80681        39.53351        -0.35964
C         55.01614        41.69886         0.02899
C         53.84233        42.39719        -0.22690
C         55.18812        44.53962        -0.51136
C         53.84823        43.84559        -0.42420
C         55.11749        46.01351        -0.16559
C         53.77554        46.69682        -0.11229
C         55.04052        48.89868        -0.15621
C         53.83459        48.19415        -0.31041
C         55.01636        50.30663        -0.20700
C         53.81968        50.99186        -0.31989
C         57.51344        24.68192         1.28960
C         56.27727        25.35055         1.24768
C         57.55330        27.46204         0.67233
C         56.28103        26.85613         1.20208
C         57.56525        28.84233         0.27899
C         56.35375        29.51095         0.05873
C         57.67289        31.67309        -0.33474
C         56.33998        30.89801        -0.38997
C         57.61103        33.13537        -0.19182
C         56.37954        33.82138        -0.40959
C         57.56852        35.96762        -0.04135
C         56.38782        35.23528        -0.35885
C         57.53751        37.40576         0.05184
C         56.30203        38.12726        -0.05463
C         57.47024        40.23239         0.42905
C         56.27038        39.50968         0.18891
C         57.43674        41.65738         0.59114
C         56.26874        42.38547         0.26970
C         57.49149        44.50184         0.54561
C         56.31360        43.80186         0.17978
C         57.41576        45.96928         0.67973
C         56.24677        46.69770         0.13563
C         57.53125        48.86464         0.50634
C         56.37484        48.17216        -0.18142
C         58.71902        25.35398         1.11781
C         60.00394        27.41838         0.58033
C         58.75259        26.74403         0.79336
C         60.04059        28.76867         0.36876
C         58.83796        29.53906         0.22237
C         60.03413        31.71926         0.38357
C         58.87219        30.94373         0.09805
C         60.00469        33.09017         0.36875
C         58.79871        33.83553         0.12129
C         59.97209        36.02175         0.45326
C         58.78704        35.26840         0.18942
C         59.95535        37.39106         0.48430
C         58.74082        38.12519         0.30357
C         59.93494        40.33530         0.41025
C         58.71791        39.54738         0.41036
C         59.92663        41.66060         0.66957
C         58.66771        42.34510         1.13346
C         59.84017        44.60523         1.26116
C         58.66359        43.84716         0.95341
C         59.86926        45.97485         1.26391
C         58.62427        46.73880         1.13576
C         58.60644        48.21381         0.97425
O         49.31308        27.40564         1.97649
O         38.09255        27.98872         0.97644
O         29.06807        41.96973        -0.79802
O         43.99403        55.37167        -1.21733
O         57.12878        31.16722        -1.60641
O         32.23908        42.07751         2.79552
O         29.07930        44.43545        -0.56244
O         57.58646        46.33341         2.11789
O         41.06694        20.53891         1.50424
O         29.54859        46.31434         2.34538
O         30.89189        33.53967        -2.05683
O         54.66684        35.61563        -2.05374
O         26.51655        30.20297        -1.77960
O         45.20593        41.04613        -2.86918
O         43.08718        50.79714        -1.67569
O         35.74353        42.19432        -1.39492
O         35.62085        28.23336         1.43571
O         35.11177        49.66683        -0.35166
O         46.99122        46.33488        -2.61914
O         41.74854        47.32708         1.57866
O         36.84242        39.36107         1.59100
H         36.07884        38.86906         1.96234
O         53.29538        46.47014         1.25883
H         53.95337        46.85279         1.87831
O         26.77510        33.64772         1.79320
H         26.10942        34.26166         2.17047
O         43.46923        45.46600         1.43405
H         43.15958        46.18288         2.03835
O         39.00016        55.72547        -0.43988
H         39.83752        56.15479        -0.71793
O         55.57844        44.53485        -1.93457
H         55.51252        43.60960        -2.25308
O         41.59627        17.84390        -1.72768
H         42.27147        17.15411        -1.91152
O         33.83876        26.53939         1.94659
H         34.33822        27.28869         2.35400
O         24.09219        42.70923         1.73276
H         24.04372        41.82522         2.15543
O         44.28342        25.03767        -2.12491
H         43.50801        25.41838        -2.58905
O         58.62390        42.13889         2.60073
H         57.80180        42.56247         2.92867
O         40.04339        36.04605        -2.99206
H         40.84529        36.48292        -3.35241
O         29.19364        26.86156         1.89967
H         30.01146        26.41299         2.20510
O         47.66976        50.48279        -2.88543
H         46.88493        50.00389        -3.22895
O         31.52093        48.23205         3.21679
H         30.75979        47.67781         3.50214
O         44.04341        35.21968        -3.23445
H         43.42497        34.50083        -3.52557
O         56.26408        27.27440         2.64548
H         57.03013        26.83541         3.07503
O         47.90842        40.31137        -3.11329
H         47.04894        40.65503        -3.46165
O         29.90258        41.34447         2.63555
H         30.70856        41.53367         3.21172
O         44.56559        53.07614        -2.28503
H         44.04127        52.25448        -2.41143
O         34.60136        43.29065         2.51735
H         33.77259        42.81902         2.85968
O         50.20980        39.97700         0.82492
H         49.51093        40.52278         1.24261
O         28.28796        37.66391        -1.64043
H         27.55853        37.30222        -2.18535
O         29.07229        29.29986        -2.25279
H         28.20615        29.68291        -2.53949
O         34.56230        50.58330         3.11960
H         33.73951        50.73581         3.63100
O         36.11666        26.79372        -1.83698
H         36.89969        26.52606        -2.37809
O         55.09768        28.36734        -1.55717
H         55.32815        29.17697        -2.06374
O         54.63889        40.13701         1.78529
H         53.74302        40.51883         1.90959
O         42.77045        20.28266        -1.75087
H         42.28491        19.47394        -2.05994
O         38.78253        26.55730        -2.31735
H         39.47542        25.98835        -2.71580
O         43.48160        54.24111         2.29583
H         42.74412        53.87897         2.83246
O         56.77198        48.17404        -1.59897
H         56.08737        47.68006        -2.10096
O         51.24639        44.04092         1.14269
H         51.68637        44.89130         1.37686
O         44.88053        52.20112         1.27413
H         44.60776        52.93005         1.88992
O         53.13463        46.18078        -2.36301
H         52.45868        45.76863        -2.93992
O         28.91910        37.59501         1.95482
H         29.53674        38.11218         2.51425
O         51.44435        39.75543        -2.60870
H         52.17232        39.21866        -2.98515
O         38.72099        42.60982        -2.28331
H         37.74877        42.72276        -2.37918
O         42.73451        32.83834        -3.12763
H         43.44380        32.19766        -3.35295
O         32.92043        31.56000        -2.53379
H         32.17345        32.12627        -2.84475
H         21.97405        26.87892         0.49084
H         21.95092        29.30614         0.12567
H         21.96292        31.21921        -0.22774
H         22.01249        33.64755        -0.15758
H         22.05381        35.52670         0.14708
H         22.06845        37.95007         0.14811
H         22.14414        39.81915        -0.44069
H         22.11490        42.23207        -0.31119
H         22.32784        44.05923        -1.01494
H         22.52912        46.41567        -1.70014
H         25.38115        23.51157         0.69841
H         23.24937        24.73398         0.75696
H         25.86481        49.81947        -1.15719
H         23.84985        48.54907        -1.75534
H         26.96864        22.56323         0.06055
H         27.63023        50.74879        -0.83998
H         29.06354        21.34697        -0.12788
H         29.65069        51.88258        -0.05514
H         32.78506        19.16391        -0.12289
H         30.69374        20.39062        -0.14022
H         32.94280        54.06216         1.41452
H         30.85465        52.81560         1.22659
H         34.42937        18.21239         0.03190
H         34.61476        54.99219         1.85547
H         36.53331        17.00439         0.08453
H         36.71377        56.22920         1.61181
H         40.26876        14.83916         0.46799
H         38.16773        16.02572         0.01245
H         40.63284        58.12473         2.39349
H         38.43339        57.07042         2.12775
H         42.72412        14.92413         0.97581
H         43.07159        58.18627         1.87264
H         44.80942        16.19280         1.15832
H         45.05228        57.21791         0.75796
H         48.45410        18.41727         1.65853
H         46.40564        17.17026         1.31474
H         48.52190        55.15044        -0.99054
H         46.45341        56.40976        -0.78385
H         50.05060        19.40562         1.94540
H         50.09006        54.19840        -0.35094
H         52.12782        20.64310         2.11594
H         52.19538        52.99400        -0.20091
H         55.88397        22.73036         1.88728
H         53.76546        21.56228         2.05240
H         55.95151        50.87798        -0.14147
H         53.84336        52.08897        -0.31930
H         57.54470        23.59365         1.44046
H         57.56233        49.96320         0.46002
H         59.66581        24.79856         1.17390
H         60.93623        26.83962         0.64850
H         61.01322        29.26757         0.26009
H         60.97294        31.21254         0.64570
H         60.93133        33.62925         0.60263
H         60.92464        35.50504         0.62696
H         60.88802        37.93086         0.69543
H         60.88078        39.84826         0.13211
H         60.86521        42.23120         0.62610
H         60.77376        44.05995         1.46111
H         60.81974        46.51274         1.39312
H         59.46974        48.77979         1.35843
