         621
 CSIRO Nanostructure Databank - Neutral Graphene Oxide Data Set
C          5.81386        31.80933         0.02196
C          5.82024        33.17203         0.06392
C          8.29713        27.52668        -0.18270
C          8.28547        28.92515        -0.36142
C          7.05992        29.67623        -0.20329
C          8.21875        31.82628        -0.61752
C          7.01428        31.05088        -0.24773
C          8.27208        33.25845        -0.28486
C          7.04582        33.94548        -0.04044
C          8.26112        36.07134         0.10755
C          7.04185        35.33846         0.08896
C          8.28523        37.48933         0.23679
C         10.52886        22.97967        -0.10955
C         10.23633        24.35030        -0.50778
C          9.38850        25.31547        -0.00753
C         10.69038        27.44975        -0.60227
C          9.46102        26.74366        -0.33843
C         10.71355        28.87359        -0.59376
C          9.52062        29.60656        -0.58190
C         10.78081        31.83828        -0.65442
C          9.53035        31.07101        -0.81119
C         10.77129        33.19627        -0.35920
C          9.50914        33.94134        -0.20435
C         10.72387        36.05965         0.35826
C          9.48606        35.33596         0.05172
C         10.73992        37.53893         0.35561
C          9.49592        38.23365         0.32218
C         10.71408        40.35917         0.62585
C          9.52654        39.65819         0.40914
C         10.66569        41.86879         0.80321
C         13.49631        18.97281        -0.01928
C         13.38386        20.38732        -0.18871
C         12.16209        21.05808         0.03126
C         12.96460        23.39536        -0.13040
C         11.83729        22.46882        -0.12934
C         13.17622        24.63970        -0.65742
C         12.06447        25.44828        -1.08261
C         13.18090        27.46551        -0.22879
C         11.96241        26.77414        -0.72742
C         13.25457        28.90775        -0.35485
C         12.01286        29.59482        -0.78165
C         13.40081        31.82909        -0.79354
C         12.05009        31.09732        -0.87507
C         13.27688        33.23423        -0.22867
C         12.03257        33.87661        -0.15711
C         13.25645        36.07512         0.05863
C         12.01053        35.28708         0.27172
C         13.23324        37.56202         0.29081
C         11.94264        38.25371         0.51541
C         13.19540        40.36197         1.09909
C         11.94055        39.64956         0.72062
C         13.22646        41.86708         0.99462
C         11.99103        42.59207         0.61989
C         13.28398        44.68863         0.45272
C         12.04613        43.92602         0.35558
C         13.32052        46.05715         0.26512
C         15.98873        14.69049         0.06361
C         15.94939        16.08900        -0.17870
C         14.74939        16.83162        -0.04183
C         15.80886        18.84693        -1.00504
C         14.65450        18.21496        -0.31164
C         15.87277        20.33206        -1.04842
C         14.64652        21.06250        -0.62148
C         15.95394        23.17728        -0.73869
C         14.94299        22.42837        -0.20292
C         15.85088        24.64423        -0.77400
C         14.51402        25.31360        -0.65890
C         15.76596        27.45594        -0.10629
C         14.50276        26.70889        -0.15147
C         15.69926        28.81817         0.11593
C         14.45914        29.58280        -0.06017
C         15.75880        31.69627         0.12734
C         14.50627        31.00308        -0.13539
C         15.75082        33.21772         0.22187
C         14.47019        33.92590         0.12316
C         15.68928        36.06718         0.43766
C         14.50638        35.33996         0.27739
C         15.67954        37.49892         0.48227
C         14.50620        38.21908         0.58440
C         15.70489        40.39763         0.59876
C         14.53623        39.60533         1.18302
C         15.75435        41.86718         0.83365
C         14.52167        42.58387         0.86552
C         15.74337        44.71825         0.84866
C         14.51483        43.98035         0.73274
C         15.73078        46.12014         0.84874
C         14.52402        46.82881         0.47113
C         15.66764        49.06668         0.60584
C         14.52277        48.20468         0.28274
C         15.81312        50.40973         0.11692
C         18.43329        10.42048         0.21495
C         18.39897        11.79637        -0.08316
C         17.20563        12.55623         0.12150
C         18.51055        14.67590        -0.02036
C         17.18434        13.94926        -0.00017
C         18.40651        16.07796        -0.56272
C         17.18403        16.73693        -0.57423
C         18.38829        18.85290        -1.27389
C         17.13500        18.10693        -1.09365
C         18.38544        20.31390        -1.44570
C         17.22051        21.03424        -0.75781
C         18.37168        23.24124        -1.12521
C         17.20518        22.52385        -1.06227
C         18.34628        24.73711        -1.07454
C         17.09939        25.41477        -0.60216
C         18.27910        27.50703        -0.14124
C         17.04063        26.75472        -0.26925
C         18.24727        28.85228         0.31769
C         16.93909        29.49086         0.55811
C         18.20025        31.70399         0.86919
C         16.91874        30.98017         0.73569
C         18.12056        33.13075         1.24783
C         16.84612        33.88235         0.99008
C         18.18876        36.10452         1.08670
C         16.89170        35.38504         0.96374
C         18.20181        37.48027         0.87958
C         17.01636        38.13767         0.20767
C         18.28698        40.38465         0.13118
C         16.95346        39.66055         0.24534
C         18.23913        41.83226         0.62560
C         16.97858        42.54131         0.79568
C         18.20256        44.66249         1.00330
C         16.99240        43.98562         0.92837
C         18.28096        46.11414         1.20821
C         16.95711        46.86601         1.17767
C         18.27229        49.04297         0.73245
C         16.99197        48.35980         1.04352
C         18.27133        50.41259         0.46754
C         16.97796        51.22443         0.62106
C         18.22973        53.22362        -0.29367
C         17.03148        52.58815        -0.00502
C         18.27987        54.60969        -0.64162
C         20.88705         6.16581         0.66534
C         20.81677         7.48494         0.23480
C         19.66413         8.29411         0.47026
C         20.72607        10.19611        -0.71682
C         19.58667         9.61740         0.03653
C         20.68376        11.65248        -1.10569
C         19.56981        12.47260        -0.60118
C         20.77915        14.55698        -1.12254
C         19.63167        13.87064        -0.65189
C         20.78459        15.98160        -1.21110
C         19.59564        16.74146        -0.98786
C         20.84482        18.86186        -1.47852
C         19.59851        18.16473        -1.21743
C         20.96400        20.30831        -1.36491
C         19.69349        21.07785        -1.47120
C         20.95323        23.25893        -1.22797
C         19.67433        22.49705        -0.87910
C         20.99001        24.76866        -1.14594
C         19.63670        25.53763        -1.08897
C         20.59880        27.81154        -0.58054
C         19.50773        26.93472        -0.55385
C         20.67744        29.02034         0.13251
C         19.43145        29.60861         0.48417
C         20.66994        31.70165         1.01480
C         19.40660        31.01897         0.84168
C         20.66714        33.11777         1.44783
C         19.38624        33.90231         1.48307
C         20.64300        36.06615         1.22257
C         19.41901        35.38173         1.29686
C         20.66130        37.51387         1.19198
C         19.41222        38.23791         1.02361
C         20.60729        40.37826         1.12843
C         19.42290        39.62171         0.79489
C         20.73587        41.77188         0.56310
C         19.42900        42.48630         0.80721
C         20.76180        44.66948         1.02901
C         19.45071        43.91367         1.12921
C         20.69432        46.08839         0.63820
C         19.53324        46.82551         0.82575
C         20.69832        48.93938         0.36042
C         19.49756        48.26549         0.60804
C         20.73282        50.35435         0.12514
C         19.48216        51.09567         0.08799
C         20.67613        53.11572        -0.74532
C         19.45901        52.44798        -0.28218
C         20.73780        54.57868        -0.84115
C         19.49527        55.30684        -0.85504
C         20.76483        57.37072        -1.32692
C         19.53742        56.69587        -1.10160
C         20.79254        58.76071        -1.58625
C         23.38601         3.45507         1.40584
C         22.16441         4.11621         1.24677
C         23.32725         6.01498         0.26158
C         22.11282         5.41411         0.68017
C         23.30897         7.30311        -0.42932
C         21.97718         8.08145        -0.46656
C         23.24573        10.21325        -0.92774
C         22.03649         9.52972        -0.67779
C         23.24866        11.59684        -1.27703
C         21.98179        12.30281        -1.49589
C         23.27405        14.56701        -1.59543
C         21.99027        13.82223        -1.55273
C         23.13486        15.89274        -1.93206
C         21.93333        16.64921        -1.72963
C         23.78583        19.13755        -1.31110
C         21.92242        18.06156        -1.86636
C         23.39809        20.29351        -0.66426
C         22.13552        20.96213        -0.96787
C         23.36297        23.13391        -0.25354
C         22.20297        22.45561        -0.92966
C         23.30318        24.59819        -0.01754
C         22.25868        25.35785        -0.57702
C         23.33020        27.44449         0.29948
C         22.43467        26.75270        -0.54467
C         23.15198        28.87282         0.59136
C         21.95758        29.61785         0.47725
C         23.12000        31.78417         0.95455
C         21.89788        31.03342         0.85881
C         23.17253        33.17530         1.04085
C         21.95041        33.90739         1.38653
C         23.12524        36.01550         0.97730
C         21.92207        35.37001         1.20916
C         23.11491        37.47903         0.61872
C         21.89310        38.17820         1.15486
C         23.21284        40.34382         1.15161
C         21.96275        39.60552         1.35184
C         23.20661        41.77683         1.11113
C         21.98861        42.50092         0.98998
C         23.24103        44.56215         0.65024
C         22.01782        43.89659         0.85165
C         23.23959        45.90621        -0.04048
C         21.91460        46.68703         0.06391
C         23.23467        48.87715         0.17813
C         21.93975        48.19467         0.06564
C         23.23297        50.29845         0.10723
C         21.96698        50.98664        -0.06917
C         23.21387        53.17058        -0.40369
C         22.00484        52.36161        -0.56142
C         23.20391        54.50074        -0.75575
C         21.97079        55.22263        -1.01162
C         23.22456        57.33118        -1.49104
C         22.00724        56.64111        -1.27982
C         23.24392        58.72193        -1.72029
C         22.00606        59.44750        -1.78121
C         23.24967        61.50443        -2.22725
C         22.03943        60.84931        -2.04103
C         24.58424         4.06801         1.05098
C         25.77926         6.04890         0.14368
C         24.58002         5.37387         0.48652
C         25.78367         7.40507        -0.28307
C         24.54499         8.08038        -0.53689
C         25.73902        10.16865        -0.84153
C         24.51649         9.46824        -0.81602
C         25.70510        11.64420        -0.80743
C         24.52429        12.34633        -1.39938
C         25.85775        14.61477        -1.07573
C         24.60322        13.88198        -1.55655
C         25.94739        16.04917        -0.85096
C         25.03099        16.98358        -1.39015
C         25.85828        18.78065         0.01450
C         24.90319        18.29935        -0.92143
C         25.64862        20.14056         0.57402
C         24.36180        20.87481         0.32868
C         25.65116        23.07716         0.76559
C         24.28903        22.37193         0.67666
C         25.66334        24.45515         0.80878
C         24.44451        25.24775         0.55093
C         25.56474        27.31700         1.42960
C         24.40354        26.64409         0.80267
C         25.59413        28.80573         1.47397
C         24.30489        29.54990         1.23385
C         25.63304        31.77394         1.24991
C         24.35557        31.05366         1.23462
C         25.65043        33.15915         1.05222
C         24.40763        33.88415         0.99903
C         25.61196        36.02045         0.82217
C         24.38793        35.30755         0.94339
C         25.62123        37.46670         0.85091
C         24.41242        38.19159         0.90576
C         25.67601        40.29826         1.09578
C         24.43291        39.60787         1.03799
C         25.68910        41.75129         1.50541
C         24.43982        42.49050         1.10103
C         25.74825        44.51693         0.39853
C         24.45468        43.85441         0.78321
C         25.69438        46.02814         0.45488
C         24.47794        46.71744         0.29507
C         25.69388        48.85939         0.36355
C         24.46243        48.14508         0.29800
C         25.71011        50.35023         0.59054
C         24.43598        51.01615         0.13732
C         25.74936        53.20141         0.05857
C         24.42902        52.48270         0.08553
C         25.74965        54.64763        -0.35855
C         24.49839        55.19106        -0.97887
C         25.79776        57.35680        -1.47040
C         24.51220        56.60190        -1.46598
C         25.73305        58.73741        -1.77397
C         24.49775        59.42166        -1.89662
C         24.46520        60.81161        -2.15407
C         26.99763         8.11446        -0.43336
C         28.21720        10.24109        -0.71448
C         26.99135         9.50064        -0.67745
C         28.25403        11.63901        -0.69332
C         26.97960        12.39277        -0.62635
C         28.21663        14.49555        -0.33480
C         27.00143        13.86996        -0.76887
C         28.19469        15.82751         0.09045
C         27.02728        16.62417        -0.09450
C         28.09120        18.61905         1.10337
C         26.94987        17.98649         0.37285
C         28.08252        20.14727         1.40080
C         26.86089        20.91180         0.91888
C         28.12454        22.96165         1.40270
C         26.85947        22.27985         0.97805
C         28.16856        24.46560         1.42786
C         26.98037        25.21825         0.84598
C         28.15827        27.38396         1.63660
C         26.87914        26.59086         1.50328
C         28.19028        28.85006         1.45332
C         26.88312        29.54127         1.12239
C         28.18896        31.76768         1.26276
C         26.85743        31.01978         1.49925
C         28.10774        33.17605         0.83247
C         26.89341        33.86890         0.85708
C         28.03837        36.01861         0.43404
C         26.85187        35.31400         0.68052
C         28.07979        37.44670         0.56061
C         26.86272        38.16498         0.84380
C         28.14347        40.28708         1.08389
C         26.88504        39.58934         0.97093
C         28.17930        41.69267         1.23579
C         26.98317        42.45979         1.19337
C         28.18724        44.58995         0.97528
C         26.99124        43.86626         0.98173
C         28.17145        46.04780         0.73816
C         26.90183        46.74725         0.47033
C         28.15062        48.88148         0.05647
C         26.91419        48.16371         0.33012
C         28.17551        50.25722        -0.08196
C         26.97276        51.04549         0.10178
C         28.22092        53.11044        -0.47705
C         26.99655        52.41148        -0.08670
C         28.24436        54.47965        -0.73690
C         27.04682        55.32817        -0.69702
C         26.99637        56.66653        -1.31753
C         29.45770        12.36212        -0.68911
C         30.69227        14.42357        -0.23160
C         29.48001        13.75645        -0.39326
C         30.74445        15.72961         0.42411
C         29.40905        16.41184         0.67686
C         30.62753        18.62709         0.66008
C         29.39220        17.86940         1.04660
C         30.56861        20.11326         0.56407
C         29.36797        20.87174         1.00270
C         30.68729        22.96813         1.24757
C         29.39632        22.22212         1.17980
C         30.73327        24.45468         1.52721
C         29.46117        25.19644         1.47127
C         30.75820        27.45947         1.37634
C         29.45572        26.63691         1.60226
C         30.65449        28.84125         0.90188
C         29.38388        29.54287         1.09138
C         30.46806        31.66199         0.25996
C         29.34301        30.95398         0.87271
C         30.49668        33.14549         0.28149
C         29.32502        33.83893         0.43595
C         30.54418        36.01805        -0.03202
C         29.23678        35.25915        -0.07524
C         30.40220        37.49668        -0.35712
C         29.29729        38.13335         0.45986
C         30.73678        40.26479         0.88809
C         29.38067        39.50370         0.98264
C         30.71752        41.71207         1.00362
C         29.48220        42.37865         1.38117
C         30.75104        44.66899         0.96558
C         29.45983        43.96342         1.32188
C         30.65017        45.93517         0.16704
C         29.43954        46.77221         0.40501
C         30.65830        48.79294        -0.43717
C         29.33106        48.05750        -0.40056
C         30.62533        50.20615        -0.53603
C         29.42069        50.94278        -0.42750
C         29.41235        52.33352        -0.60121
C         31.96912        16.55091         0.43140
C         33.13248        18.71168         0.46194
C         31.94601        17.92641         0.56347
C         33.13937        20.11872         0.36109
C         31.85231        20.85840         0.34658
C         33.17684        23.02961         0.60182
C         31.87778        22.33171         0.59938
C         33.19341        24.43436         0.67655
C         32.02442        25.18790         1.23341
C         33.03124        27.28672         0.17038
C         32.01179        26.68307         1.11032
C         33.05062        28.79790         0.17671
C         31.81168        29.47015         0.37640
C         33.00351        31.66061        -0.19220
C         31.74334        30.90004        -0.00774
C         32.98145        33.06547        -0.28763
C         31.82508        33.86838         0.27804
C         32.95193        35.99908        -0.53579
C         31.75439        35.33374        -0.15427
C         33.00786        37.47612        -0.65333
C         31.73334        38.25992        -0.38514
C         33.11356        40.22838         0.19042
C         31.88678        39.59893         0.22441
C         33.24608        41.64253         0.63493
C         32.01121        42.42240         1.00715
C         33.20945        44.54823         0.15622
C         32.04611        43.91822         0.86114
C         33.16545        45.86859        -0.22924
C         31.89585        46.61095        -0.32506
C         31.84438        48.07169        -0.48439
C         34.32904        20.85548         0.28182
C         35.57436        22.99763         0.14071
C         34.36922        22.29127         0.31527
C         35.59721        24.42356         0.10169
C         34.37194        25.13041         0.36999
C         35.59019        27.35015        -0.00591
C         34.36843        26.61092         0.39182
C         35.49881        28.79249        -0.36620
C         34.22748        29.49205        -0.24137
C         35.39856        31.64001        -0.80101
C         34.18881        30.90979        -0.41891
C         35.39409        33.09786        -0.67339
C         34.19301        33.77821        -0.53116
C         35.52170        35.98611        -0.97195
C         34.16912        35.24001        -0.79012
C         35.56665        37.51449        -0.99379
C         34.30110        38.17047        -0.46607
C         35.60638        40.23832        -0.14030
C         34.32386        39.52221        -0.19344
C         35.62624        41.63329        -0.05816
C         34.44465        42.39257         0.16238
C         34.40408        43.76677        -0.01177
C         36.77530        25.13241        -0.19654
C         38.02325        27.33939        -0.41618
C         36.74537        26.57567        -0.60378
C         37.99358        28.72456        -0.46200
C         36.71037        29.43332        -0.56014
C         37.99426        31.59604        -0.59358
C         36.74949        30.87483        -0.83596
C         37.97441        33.03313        -0.33528
C         36.66271        33.81171        -0.46119
C         37.96270        35.92114        -0.37482
C         36.74132        35.25732        -0.63210
C         37.98302        37.33784        -0.26746
C         36.82087        38.11023        -0.39193
C         36.81184        39.48914        -0.15033
C         39.20791        29.48489        -0.45641
C         40.44593        31.65784        -0.40724
C         39.21263        30.89034        -0.48042
C         40.45800        33.02254        -0.40601
C         39.23648        33.79463        -0.38256
C         39.19474        35.16912        -0.29144
O         26.10721        12.08503         0.54649
O         32.51821        26.06209         2.31212
O         17.48446        20.91414         0.62240
O         20.18948        44.33912         2.34094
O         18.86178        25.37582        -2.30796
O         22.45324         7.32372        -1.62234
O         30.29103        19.28081        -0.63169
O         16.19252        18.22362        -2.24948
O         27.94568        23.69668         2.65341
O         32.27305        38.15588        -1.75690
O         11.39755        35.50412         1.58377
O         30.92743        23.45297         2.60217
O         31.70243        44.69325         2.06163
O          8.72514        31.50590        -1.96069
O         23.03832        18.70880        -2.42362
O         15.01630        20.90888        -2.06049
O         15.12782        25.17844        -1.98267
O         16.01271        40.10190        -0.81541
O         16.43880        34.62122         2.16188
O         25.91410        44.26954        -1.10298
O         24.03465        30.26944         2.47751
O         21.66690        27.50236        -1.42981
O         23.41573        22.85769        -1.68038
O         13.03103        41.18356         2.30955
O         24.54174        20.10731         1.57062
O         30.03559        15.64682         1.74318
O         16.23027        32.56110        -0.98592
O         12.04137        30.26886        -2.10182
O         21.35750        52.47156        -1.87556
O         34.78280        35.48709        -2.12992
O         21.07646        24.05127        -2.42223
O         31.64566        21.80921        -0.75956
O         25.03398        53.06040         1.34054
O         18.58629        33.41302         2.61110
O         30.28431        27.17833         2.70367
O         14.03204        22.97767         0.68780
O         24.61587        55.47101        -2.42308
O         21.70661        47.40997        -1.19766
O         26.36874        55.46112         0.66679
O         25.40235        28.05430         2.68988
O         36.03864        31.23315        -2.07347
O         30.94310        45.81747        -1.25790
O         17.60484        46.51375         2.44769
O         24.83055        12.97770        -2.68703
O         30.29567        39.58912         2.13736
O         28.98673        46.79827         1.76557
O         37.18766        33.37469         0.87321
O         13.68968        26.90416         1.04542
O         30.79431        31.14035        -1.11274
O         16.68356        30.11023         1.88474
O         29.53127        43.24307         2.56497
O         21.42803        33.40031         2.66946
O         27.45165        26.77579         2.81014
O         28.66833        17.97520         2.30497
O         21.14805        40.15164         2.44067
O         27.66316        31.46185         2.60575
O         32.93276        41.88868         2.04372
O         21.82983        13.00528        -2.77650
O         16.13038        48.94770         2.04159
O         20.30776        10.61729        -2.07117
O         13.24012        36.96696        -1.09294
O         10.98624        24.76966        -1.64392
O         24.23996        16.56993        -2.45434
O         35.27574        27.15545         1.40827
O         18.90185        20.88431        -2.67825
O         14.85019        39.41482         2.58453
H         14.33540        40.08662         3.09295
O         26.80069        29.55343        -0.35645
H         27.64159        29.91930        -0.71098
O         16.82880        51.49248         2.05692
H         16.56723        50.63760         2.48283
O         28.93911        35.06856        -1.50788
H         29.05322        35.96297        -1.92434
O         36.45003        26.57025        -2.05921
H         37.22207        26.17715        -2.51889
O         29.02041        47.66682        -1.76954
H         29.71968        47.02314        -2.04628
O         32.58115        26.88835        -1.16276
H         33.15418        27.32408        -1.82964
O         13.85206        32.04051        -2.16060
H         13.51254        31.27950        -2.68947
O         18.57894        40.43954        -1.30003
H         17.71563        40.57980        -1.75446
O         22.98812        37.53300        -0.85655
H         22.14128        37.09965        -1.09718
O         25.62371        41.71888         2.98350
H         26.47454        41.35746         3.31348
O         32.17189        33.94068         1.71422
H         31.47063        34.45236         2.17223
O         23.67591        22.48993         1.97636
H         24.02611        21.75263         2.52884
O         20.92975        41.66027        -0.87930
H         20.13361        41.21574        -1.27275
O         29.85257        37.57725        -1.72708
H         30.63976        37.65134        -2.32463
O         17.24592        37.80828        -1.20481
H         16.55614        38.28536        -1.71941
O         35.62096        37.90517        -2.39611
H         35.03292        37.28053        -2.88215
O         25.72092        50.50533         2.05941
H         25.58290        51.47086         2.23292
O         27.35274        25.45999        -0.54845
H         26.53984        25.61915        -1.07386
O         28.00192        20.30485         2.84051
H         28.38118        19.49399         3.25519
O          9.65612        42.43955        -0.03022
H          9.86796        42.23361        -0.96335
O         19.75765        22.32177         0.56086
H         18.92866        21.80328         0.82999
O         25.78041        42.85023        -1.32780
H         24.89243        42.78471        -1.75859
O         18.89350        14.83629         1.39303
H         18.77248        13.96732         1.83159
O         23.39227        45.54414        -1.44716
H         23.01644        46.29336        -1.96854
H          4.87554        31.25762         0.18150
H          4.88386        33.71854         0.24846
H          7.34755        27.02210         0.05168
H          6.14174        29.11605         0.03150
H          6.08786        35.87335         0.20492
H          7.32780        38.02928         0.27973
H          9.70148        22.31676         0.19105
H          8.64184        25.03093         0.75063
H          8.58464        40.22147         0.33389
H         10.34496        42.06581         1.86485
H         12.62407        18.42857         0.37763
H         11.30183        20.40355         0.25565
H         11.11572        44.46862         0.12843
H         12.39841        46.59548         0.00001
H         15.04227        14.15654         0.23982
H         13.86477        16.31152         0.35658
H         13.61392        48.68921        -0.10367
H         15.21519        50.74890        -0.74061
H         17.53727         9.95813         0.65551
H         16.26804        12.01647         0.32448
H         16.09850        53.17180        -0.01084
H         17.33451        55.17109        -0.68314
H         19.99783         5.70962         1.12586
H         18.81125         7.85072         1.00567
H         18.59937        57.27012        -1.12434
H         19.84436        59.31667        -1.63307
H         23.40101         2.44559         1.84004
H         21.23199         3.63328         1.57182
H         23.25758        62.58488        -2.42833
H         21.09336        61.40669        -2.09274
H         25.54161         3.55201         1.20917
H         26.74211         5.53832         0.29274
H         26.66839        59.30992        -1.86558
H         25.41214        61.35275        -2.29227
H         27.95231         7.59615        -0.26427
H         29.16468         9.68282        -0.69143
H         29.18833        54.93635        -1.07042
H         27.94833        57.19318        -1.48667
H         30.41203        11.82020        -0.76221
H         31.63407        13.90512        -0.46551
H         31.56863        50.75265        -0.68904
H         30.35012        52.84666        -0.86183
H         32.92951        16.04519         0.25022
H         34.09610        18.18193         0.42363
H         34.07401        46.34615        -0.62673
H         32.80028        48.61152        -0.56382
H         35.28378        20.31230         0.21825
H         36.50435        22.44263        -0.05042
H         36.58194        42.16454        -0.18247
H         35.30237        44.27844        -0.38979
H         37.70216        24.56505        -0.37794
H         38.98343        26.80734        -0.33791
H         38.92868        37.83453        -0.00277
H         37.75198        39.99722         0.11347
H         40.16377        28.94438        -0.39381
H         41.39510        31.10305        -0.37881
H         41.41552        33.56358        -0.38239
H         40.13512        35.73680        -0.22493
