         234
 CSIRO Nanostructure Databank - Neutral Graphene Oxide Data Set
C          1.24853         2.19386        -0.98364
C          1.26848         3.48826        -1.55104
C          2.42459         1.61673        -0.55973
C          2.46112         4.18691        -1.57150
C          1.37404         7.33428        -1.36111
C          1.32006         8.44022        -0.51313
C          2.49992         6.50586        -1.36127
C          2.41573         8.76316         0.29712
C          1.13262        10.79786         1.03945
C          1.23661        12.08803         0.66917
C          2.32084         9.92895         1.31273
C          2.51123        12.74934         0.47589
C          1.33698        14.88856        -0.10107
C          1.35003        16.11404        -0.66466
C          2.54249        14.07554         0.01697
C          2.57771        16.67069        -1.33913
C          2.61365        18.17401        -1.32237
C          3.69499         2.26508        -0.68247
C          3.70358         3.66611        -1.09927
C          4.81522         1.48577        -0.27525
C          4.83746         4.53937        -0.94420
C          3.63892         6.78757        -0.57055
C          3.58199         7.96646         0.21836
C          4.84166         5.93351        -0.54000
C          4.79415         8.39448         0.94518
C          3.64080        10.69189         1.29470
C          3.73326        12.01582         0.82854
C          4.79840         9.79850         1.54735
C          4.98718        12.72706         0.62651
C          3.78534        14.72572        -0.32121
C          3.84086        16.02638        -0.81418
C          5.02842        13.94729        -0.21553
C          5.07954        16.75961        -0.81983
C          3.76383        18.85716        -1.18581
C          5.03705        18.19025        -0.94906
C          6.12633         1.77181        -0.69106
C          6.13322         3.92429        -1.05743
C          7.35223         1.35199        -0.16326
C          7.30134         4.36797        -0.52534
C          6.04216         6.48347        -0.04583
C          6.08800         7.80132         0.53985
C          7.29814         5.66351         0.21549
C          7.29484         8.48453         0.72518
C          6.13669        10.34035         1.77670
C          6.18555        12.43545         1.28506
C          7.31182         9.80840         1.29946
C          7.47396        12.83938         0.89035
C          6.35410        14.65579        -0.44329
C          6.31274        16.12759        -0.51070
C          7.67679        13.97512        -0.09419
C          7.46340        16.89413        -0.19381
C          6.19295        18.93214        -0.76054
C          7.40593        18.30919        -0.35767
C          8.55801         2.09561        -0.36682
C          8.54295         3.55657        -0.71381
C          9.78223         1.50224        -0.08017
C          9.83584         4.30467        -0.62544
C          8.59293         6.42253        -0.00828
C          8.56017         7.93970         0.09134
C          9.75236         5.77601        -0.30633
C          9.84087         8.50620         0.67375
C          8.57505        10.60850         1.48240
C          8.62690        12.08186         1.25678
C          9.88034         9.87476         1.23148
C          9.86555        12.75033         1.17734
C          8.73538        14.89685         0.45465
C          8.67062        16.28482         0.35148
C          9.79935        14.25997         1.31425
C          9.80102        17.12385         0.71339
C          8.57392        19.07070        -0.13318
C          9.75293        18.48612         0.34081
C         11.07593         2.10843        -0.22959
C         11.13199         3.55363        -0.48897
C         12.17152         1.26514         0.08503
C         12.29620         4.30114        -0.58176
C         11.02079         6.54638        -0.28652
C         11.03203         7.87838         0.38291
C         12.29362         5.78073        -0.41225
C         12.28456         8.54317         0.61474
C         11.11327        10.65461         1.01971
C         11.10308        12.06392         1.11417
C         12.31986         9.93046         0.81421
C         12.33574        12.80007         0.88694
C         11.16200        14.98751         1.19103
C         11.11724        16.52821         1.13655
C         12.33604        14.20353         0.69685
C         12.32880        17.35549         0.93238
C         10.95129        19.40108         0.43182
C         12.25681        18.64701         0.35311
C         13.52975         1.53373        -0.24906
C         13.60185         3.69289        -0.70286
C         14.75169         1.11067         0.25445
C         14.76666         4.20237        -0.18516
C         13.52344         6.35106         0.23514
C         13.54234         7.78071         0.65452
C         14.82370         5.67479        -0.05513
C         14.83189         8.50867         0.65903
C         13.57630        10.63927         0.77254
C         13.54934        12.05404         0.73460
C         14.81240         9.93431         0.68641
C         14.77410        12.74907         0.52955
C         13.51631        14.82627         0.18833
C         13.70476        16.14752        -0.53966
C         14.74111        14.15680         0.30376
C         14.54694        17.08136         0.35967
C         13.42074        19.26806        -0.06967
C         14.65614        18.53621        -0.04594
C         15.97516         1.88918         0.07793
C         15.93542         3.38678         0.20631
C         17.21428         1.27768         0.09333
C         17.25169         4.13323         0.50132
C         16.09065         6.38823         0.21906
C         16.04916         7.83156         0.55657
C         17.34297         5.62098         0.40107
C         17.28287         8.53541         0.56299
C         16.04255        10.64618         0.51879
C         15.98712        12.04731         0.38904
C         17.30068         9.94145         0.46312
C         17.16932        12.79142        -0.06344
C         15.98014        14.90786         0.28530
C         15.96645        16.38146         0.72764
C         17.16726        14.24954         0.13663
C         17.10227        17.10313        -0.06555
C         15.83212        19.20552        -0.25137
C         17.16154        18.60643         0.12120
C         18.46490         1.99885         0.11239
C         18.49811         3.36858         0.36396
C         19.71109         1.30423        -0.12551
C         19.78759         4.06353         0.49780
C         18.51733         6.30271         0.51245
C         18.53618         7.77961         0.65145
C         19.82630         5.60814         0.61071
C         19.85870         8.52796         0.38928
C         18.53283        10.62954         0.18219
C         18.46522        12.06066        -0.18499
C         19.75647         9.96343         0.04003
C         19.71125        12.84538        -0.26645
C         18.47468        14.96898         0.34946
C         18.38132        16.35736        -0.26012
C         19.70614        14.22171        -0.13525
C         19.62834        17.10249        -0.47961
C         18.33001        19.20442        -0.60081
C         19.53954        18.50937        -0.75298
C         20.90716         1.96830        -0.20837
C         21.00157         3.37825         0.04212
C         22.17345         4.11472        -0.10883
C         21.04763         6.30115         0.15715
C         21.02207         7.73880        -0.07205
C         22.18730         5.52836        -0.06970
C         22.04818         8.43586        -0.69061
C         20.91540        10.62025        -0.50426
C         20.87029        12.10390        -0.88208
C         22.01068         9.84726        -0.85708
C         22.14802        12.86607        -0.67837
C         20.90758        14.96780        -0.38284
C         20.86895        16.41228        -0.52870
C         22.12978        14.21883        -0.52150
C         22.03013        17.16118        -0.85327
C         20.73285        19.19427        -1.14614
C         21.94708        18.52414        -1.16491
O          6.14396        11.58290         2.40850
O         13.64870         2.44763        -1.31690
O         11.78841         6.54671        -1.55357
O         13.54541        16.98547         1.49423
O         16.25913        16.47190         2.06495
O          9.24062         3.95898        -1.94446
O         17.63538        12.31848        -1.40602
O         16.34791         3.74213         1.58855
O         19.96255         4.76629         1.78400
O          5.70968        13.91303        -1.54120
O         13.26606        16.38910        -1.64387
O         15.57156         6.24185        -1.19594
O         17.39625        16.55970        -1.36264
O          6.18776         2.70517        -1.74936
O         13.40868         6.65873         1.65408
O          4.58406         8.58971         2.38753
O         11.33981        15.77893         2.40094
O          2.47324         5.42537        -2.24495
O          9.34443        10.08212         2.60489
O         19.41160         8.21189         1.74250
O          7.26598         5.34534         1.65192
H          7.13119         6.18491         2.14300
O          2.07242         9.34594         2.61092
H          2.87907         8.83640         2.86924
O          8.22997        13.40956        -1.31899
H          7.46326        13.22371        -1.91079
O          9.27794        14.45978         2.66399
H          9.86352        15.11836         3.11234
O         17.32804        18.84104         1.55496
H         16.90368        18.06053         2.02919
O          2.48132        16.28945        -2.75701
H          2.58505        15.31525        -2.80487
O         10.89131        20.42091        -0.56386
H         10.87295        19.99450        -1.44511
O         20.59321        12.12905        -2.33208
H         19.61854        12.06086        -2.44882
O          8.51534         8.43518        -1.29049
H          9.26326         8.02986        -1.78131
O         18.62203        15.16241         1.78127
H         17.78396        15.62570         2.10206
H          0.30387         1.63683        -0.92313
H          0.36009         3.93265        -1.97649
H          2.41282         0.58563        -0.17846
H          0.52776         7.09176        -2.01638
H          0.41731         9.06554        -0.49853
H          0.14117        10.35916         1.22168
H          0.31400        12.65822         0.49802
H          0.39592        14.51756         0.32768
H          0.42050        16.70056        -0.72145
H          1.66601        18.70637        -1.49396
H          4.62847         0.60920         0.36352
H          3.76574        19.95740        -1.21566
H          7.38874         0.46248         0.48407
H          6.16466        20.02699        -0.86236
H          9.77170         0.43380         0.18803
H          8.57058        20.14813        -0.35149
H         11.93607         0.31789         0.59634
H         10.93159        19.93113         1.42609
H         14.81185         0.21305         0.88916
H         13.41067        20.32703        -0.36435
H         17.26532         0.17949         0.04677
H         15.78864        20.27009        -0.53380
H         19.67474         0.21958        -0.30258
H         18.26952        20.25307        -0.93145
H         21.82610         1.41778        -0.45817
H         23.10373         3.59037        -0.37148
H         23.13465         6.03054        -0.31258
H         22.93568         7.90069        -1.05614
H         22.87857        10.32713        -1.33101
H         23.11083        12.34097        -0.75993
H         23.08838        14.75602        -0.47650
H         23.01049        16.66903        -0.89877
H         20.68387        20.26663        -1.38173
H         22.86330        19.06732        -1.43569
