         294
 CSIRO Nanostructure Databank - Neutral Graphene Oxide Data Set
C          1.27553         1.99283         0.22258
C          1.22999         3.39714         0.24088
C          2.46460         1.32316         0.44734
C          2.38826         4.16139         0.46522
C          1.21071         6.35552        -0.21122
C          1.26446         7.68065        -0.44389
C          2.31781         5.68764         0.58530
C          2.42760         8.47872        -0.03627
C          1.15742        10.74778        -0.27123
C          1.16618        12.08914        -0.20365
C          2.32919         9.96395         0.29661
C          2.32150        12.78129         0.48486
C          1.24526        15.11133         0.61552
C          1.30460        16.44163         0.98682
C          2.37761        14.28899         0.50488
C          2.57505        17.19789         1.27889
C          2.53744        18.52132         0.48145
C          3.66441         2.05437         0.70383
C          3.60420         3.48910         0.69565
C          4.86772         1.36495         0.94939
C          4.83042         4.24964         1.04310
C          3.65643         6.31717         0.12520
C          3.60096         7.83493         0.20657
C          4.84815         5.73185         0.89481
C          4.84711         8.53628         0.71558
C          3.61274        10.66105        -0.18509
C          3.62387        12.15627         0.01559
C          4.86911        10.04089         0.39868
C          4.77139        12.85359        -0.25226
C          3.73453        14.84491         0.84351
C          3.79315        16.33379         0.96869
C          4.76984        14.34015        -0.15586
C          5.02941        16.90206         0.97778
C          3.53132        19.39848         0.19395
C          4.92137        19.16965         0.56623
C          6.15249         2.03953         1.13692
C          6.15682         3.54675         1.10840
C          7.39933         1.30417         0.80347
C          7.32347         4.24383         0.48778
C          6.22708         6.43065         0.91308
C          6.12284         7.79752         0.20735
C          7.33009         5.58920         0.28046
C          7.42340         8.62936         0.38811
C          6.12635        10.77855         0.07565
C          6.05632        12.18252        -0.43220
C          7.31838         9.96764        -0.38521
C          7.22469        12.85413        -0.73829
C          5.97301        15.13746        -0.55882
C          6.15676        16.47984         0.13894
C          7.13088        14.30815        -1.27232
C          7.03344        17.43742        -0.33826
C          6.10118        19.61191         0.06451
C          7.35012        18.77422         0.38600
C          8.50627         1.94100         0.38317
C          8.50920         3.41183         0.03969
C          9.76143         1.19104        -0.03048
C          9.77019         4.11174         0.54058
C          8.54178         6.30410        -0.34294
C          8.63653         7.83045        -0.08248
C          9.81633         5.56916         0.12101
C          9.75907         8.53593        -0.40496
C          8.58664        10.78214        -0.42087
C          8.50184        12.12655        -0.71215
C          9.83273        10.02404        -0.50169
C          9.69231        12.83887        -1.33472
C          8.47399        15.02181        -1.28736
C          8.61329        16.33825        -1.54921
C          9.72955        14.30001        -0.83134
C          9.87641        17.04452        -1.50145
C          8.69634        19.48749         0.20050
C          9.84251        19.06984        -0.44394
C         11.04548         1.94202         0.28228
C         11.01637         3.30705         0.63602
C         12.28727         1.29673         0.21655
C         12.23410         3.93031         0.98798
C         11.12177         6.02766        -0.46115
C         10.97153         7.89926        -1.04392
C         12.26087         5.89829         0.37450
C         12.25838         8.50977        -0.44383
C         11.01167        10.66272        -0.82001
C         11.09698        12.12580        -1.23545
C         12.31762         9.91965        -1.02758
C         12.22116        12.87773        -0.47597
C         11.06595        14.97473        -1.31489
C         11.05985        16.48050        -1.17950
C         12.28132        14.35812        -0.65167
C         12.33261        17.30694        -1.20171
C         11.15454        19.23136         0.11111
C         12.29869        18.45903        -0.17809
C         13.50531         2.01498         0.28924
C         13.49470         3.39679         0.63008
C         14.76700         1.33321         0.05441
C         14.70183         4.21360         0.26250
C         13.56926         6.50306         0.16187
C         13.57013         7.73304        -0.72463
C         14.83391         5.72031         0.39947
C         14.85443         8.51701        -0.53973
C         13.53476        10.64447        -0.47229
C         13.51027        12.12143        -0.32286
C         14.83750         9.92405        -0.61556
C         14.76644        12.83207        -0.78916
C         13.56631        15.11548        -0.77548
C         13.59097        16.46191        -1.01037
C         14.80282        14.34784        -0.57551
C         14.89040        17.26569        -1.01447
C         13.49697        18.80850         0.46858
C         14.78569        18.32631         0.08653
C         15.94902         1.98981        -0.09825
C         15.94886         3.46955        -0.19560
C         17.24809         1.22701        -0.31879
C         17.23517         4.21423        -0.34705
C         16.18307         6.41486         0.12050
C         16.07899         7.81973        -0.45904
C         17.27036         5.56491        -0.47573
C         17.29976         8.52401        -0.57756
C         16.04422        10.63216        -0.54455
C         16.02827        12.11486        -0.25764
C         17.27484         9.93982        -0.55902
C         17.30518        12.81842        -0.73446
C         15.99554        14.99103        -0.44822
C         16.20598        16.42169        -0.90974
C         17.22905        14.21521        -0.13581
C         17.32686        17.13205        -0.15671
C         15.91449        18.98708         0.51128
C         17.26299        18.64620        -0.08704
C         18.42340         2.01670         0.27890
C         18.52446         3.42275        -0.51525
C         19.76376         1.32301         0.13837
C         19.70133         4.21748         0.11838
C         18.56565         6.22377        -0.96623
C         18.54304         7.81335        -1.12539
C         19.72414         5.74260        -0.06283
C         19.92479         8.58304        -0.77851
C         18.52490        10.68123        -0.36304
C         18.54667        12.04288        -0.32880
C         19.68788         9.83714         0.09871
C         19.81466        12.79458        -0.14484
C         18.44143        14.95400         0.27539
C         18.37301        16.43848         0.35280
C         19.77987        14.30171         0.11134
C         19.47278        17.08762         1.09750
C         18.38958        19.26887         0.68625
C         19.47380        18.56430         1.16722
C         20.92824         1.99413         0.14939
C         20.96471         3.46570         0.34902
C         22.23905         4.22174         0.31733
C         21.09881         6.30148        -0.54937
C         21.05048         7.76336        -0.15374
C         22.28488         5.52029        -0.01722
C         22.06264         8.40947         0.48032
C         20.99361        10.60784         0.29034
C         21.02514        12.06432         0.27185
C         22.09280         9.84894         0.58955
C         22.14097        12.79824         0.63505
C         20.95241        14.94505         0.73086
C         20.81469        16.33519         1.26104
C         22.10424        14.20754         0.86488
C         21.98397        17.18287         1.46801
C         20.63340        19.21077         1.68525
C         21.85448        18.52645         1.78337
O          5.58991        10.74942         1.44889
O         11.67889        12.14846        -2.56059
O         14.23631         6.47597         1.47965
O         20.02741        13.77744        -1.23618
O         10.83720         7.75084        -2.31976
O         17.60416        14.29020         1.28563
O          5.02258        18.18398         1.57755
O          9.68396         5.19379         1.51262
O          4.75250        15.09843        -1.40454
O          4.55991         5.15663         2.20404
O         14.96307         3.94936        -1.17230
O         12.15748         5.23244         1.58260
O          7.52111        17.23911        -1.63133
O          6.34202         2.86006         2.37988
O         19.81771        16.43477         2.34692
O         18.82850         3.12563        -1.81819
O         13.47427        11.26610         0.87918
O         12.02584        13.75701         0.67955
O         20.06986         3.87315         1.48918
O          9.74570        18.43170        -1.68750
O         20.48805         9.03270        -2.03408
H         20.99448         8.26630        -2.40001
O         12.57396         9.76472        -2.43656
H         12.22971        10.60250        -2.87172
O          7.49332        18.46937         1.78922
H          6.60740        18.43751         2.21837
O          8.57497         3.42054        -1.41372
H          8.58209         4.35766        -1.73721
O          3.80345         5.89847        -1.25324
H          4.49382         6.47535        -1.66188
O          2.17953        12.52174         1.91869
H          3.07762        12.59822         2.31823
O         17.45868         0.96306        -1.69464
H         17.89373         1.77292        -2.09778
O          7.60096         8.99359         1.76269
H          7.55610         8.16816         2.30356
O         11.34377         5.44195        -1.73625
H         11.29164         6.15351        -2.43981
O          7.06872         9.73660        -1.79809
H          6.30953         9.11188        -1.89123
O         16.02125        12.22440         1.18191
H         15.17447        11.83268         1.50517
O          2.55776        17.54954         2.68893
H          3.38882        18.04905         2.85628
O         13.55256         7.25462        -2.07983
H         13.15749         7.97471        -2.63430
O          9.55405        14.35240         0.60001
H         10.37070        14.00843         1.04194
O         18.31375         8.02717        -2.54191
H         18.93567         8.74495        -2.82829
O         16.73556        16.23611        -2.24942
H         15.99892        15.95252        -2.83183
O         14.69175        12.67623        -2.23163
H         13.74119        12.60480        -2.50177
O         12.40149        17.93994        -2.51506
H         11.52475        18.35995        -2.67645
O          4.80262         8.41285         2.14803
H          5.34180         9.15805         2.50703
O          8.41787         6.19229        -1.79763
H          9.17110         6.71340        -2.19734
O         18.08861         2.24311         1.63551
H         18.84899         2.71556         2.06080
O          6.75089        14.18651        -2.65453
H          5.77840        14.34266        -2.71082
O          2.31017        10.02417         1.73825
H          1.68697         9.34551         2.06977
O         17.31872        12.93138        -2.16602
H         18.19107        13.30482        -2.42231
O          9.32664        12.86628        -2.72322
H         10.06387        12.40544        -3.20597
O         15.01511        17.99021        -2.26355
H         14.10696        18.25451        -2.56142
O          4.13584        14.30163         2.14626
H          3.60522        14.76224         2.83167
O          6.63671         6.59987         2.28160
H          6.05223         6.02298         2.83246
O         19.30350         9.33051         1.40321
H         18.99899        10.08312         1.95131
O         11.22513        14.76705        -2.73431
H         11.43118        13.79827        -2.89451
O         12.05199         8.56496         0.97339
H         12.66498         9.22153         1.37060
O          2.03967         6.00066         1.96521
H          2.81542         5.70044         2.49762
O          3.67043        10.40271        -1.61844
H          4.42284        10.90881        -1.99487
O          5.93843         7.50956        -1.20647
H          6.76464         7.08559        -1.56167
O         21.26249         6.29501        -1.99458
H         20.48979         5.80761        -2.39289
O         17.34268        19.20534        -1.42408
H         16.61570        18.79979        -1.96465
O         19.49652         6.34399         1.21717
H         19.84291         5.73529         1.90809
O         18.79192         5.65532        -2.26952
H         18.30189         6.21778        -2.91630
O          9.79768        -0.11450         0.54632
H          9.92472        -0.02257         1.51262
O         16.73430         6.65404         1.45804
H         16.01993         7.06825         1.99430
H          0.35291         1.42549         0.03760
H          0.26349         3.89453         0.08370
H          2.49828         0.22455         0.44471
H          0.31767         5.78635        -0.50733
H          0.42841         8.18464        -0.95184
H          0.31562        10.22603        -0.75170
H          0.33579        12.68449        -0.61361
H          0.25451        14.66516         0.43410
H          0.36081        16.99547         1.10683
H          1.53116        18.80050         0.12563
H          4.86856         0.26686         0.86675
H          3.29328        20.28951        -0.40831
H          7.41488         0.21234         0.95005
H          6.13588        20.33991        -0.75757
H          9.70576         1.05048        -1.14448
H          8.89710        20.11120         1.09010
H         12.31678         0.22325        -0.02026
H         11.24267        19.94240         0.95007
H         14.74951         0.23287         0.02363
H         13.46660        19.63298         1.20096
H         17.18010         0.23761         0.21085
H         15.83014        19.78771         1.26371
H         19.76273         0.23098        -0.00383
H         18.40394        20.36938         0.73705
H         21.88455         1.46375         0.02572
H         23.16216         3.68539         0.58808
H         23.26565         6.01909        -0.05760
H         22.93709         7.85176         0.84619
H         23.05350        10.31452         0.85321
H         23.07415        12.28001         0.89568
H         23.00762        14.67339         1.28524
H         22.98858        16.75186         1.35109
H         20.60681        20.29670         1.85552
H         22.75916        19.10235         2.02622
