         424
 CSIRO Nanostructure Databank - Neutral Graphene Oxide Data Set
C          1.73030         2.04437        -2.16547
C          1.72383         3.41151        -2.30712
C          2.89501         1.34455        -1.79130
C          2.99798         4.20061        -2.22955
C          1.64184         6.24917        -1.56992
C          1.54684         7.64312        -1.26004
C          2.84559         5.62989        -1.74947
C          2.67407         8.41786        -1.02734
C          1.48317        10.63896        -1.34407
C          1.53624        11.98194        -1.47007
C          2.54146         9.86948        -0.59347
C          2.68249        12.76519        -1.02954
C          1.56156        14.95240        -1.53195
C          1.52416        16.29738        -1.44470
C          2.69689        14.17113        -1.05956
C          2.60592        17.07257        -0.74596
C          2.77307        18.47860        -1.26479
C          4.07651         2.05081        -1.42054
C          4.10269         3.47544        -1.49227
C          5.21854         1.35271        -0.95628
C          5.21379         4.18771        -0.96716
C          4.12454         6.41432        -1.61042
C          3.94886         7.79308        -1.02614
C          5.22189         5.62915        -0.92369
C          5.10094         8.48060        -0.59327
C          3.85577        10.61845        -0.58540
C          3.86076        12.03922        -0.63705
C          5.05674         9.91355        -0.40581
C          5.07346        12.74993        -0.37964
C          3.89007        14.88928        -0.69246
C          3.90934        16.31218        -0.69704
C          5.08675        14.17533        -0.40193
C          5.11926        17.01132        -0.54276
C          3.95370        19.12343        -1.18002
C          5.16604        18.44838        -0.73461
C          6.35752         2.04650        -0.50610
C          6.32711         3.46726        -0.45783
C          7.55086         1.34423        -0.11835
C          7.42067         4.17777         0.29415
C          6.34214         6.33423        -0.44024
C          6.32406         7.77503        -0.38638
C          7.51845         5.64367        -0.01207
C          7.50322         8.47707        -0.00948
C          6.27357        10.61753        -0.13232
C          6.26957        12.03555        -0.08660
C          7.48539         9.90312         0.09038
C          7.47105        12.74074         0.24971
C          6.30468        14.88189        -0.13509
C          6.33007        16.31100        -0.24699
C          7.48141        14.17521         0.20291
C          7.54518        17.02459        -0.05466
C          6.35352        19.13136        -0.58369
C          7.56967        18.45784        -0.22019
C          8.74151         2.01810         0.17201
C          8.74744         3.46660         0.23722
C          9.95729         1.31274         0.42372
C          9.91940         4.17327         0.43197
C          8.71796         6.33098         0.21879
C          8.72145         7.77330         0.20713
C          9.93413         5.60473         0.49446
C          9.92366         8.49186         0.44345
C          8.67237        10.60786         0.44872
C          8.63457        12.01761         0.58026
C          9.90992         9.88420         0.58795
C          9.80904        12.73031         1.19109
C          8.71229        14.89078         0.44859
C          8.73822        16.33545         0.29820
C          9.85127        14.20448         0.84890
C          9.94528        17.06028         0.48518
C          8.76775        19.15619        -0.07006
C          9.97783        18.48509         0.26742
C         11.16405         1.97824         0.65203
C         11.25892         3.47520         0.45054
C         12.36953         1.29641         0.88462
C         12.17229         4.15273         1.48161
C         11.16826         6.29547         0.70579
C         11.22808         7.74598         0.29645
C         12.32308         5.62710         1.11857
C         12.41548         8.48418         0.84440
C         11.15129        10.63216         0.76486
C         11.11281        12.00333         0.92035
C         12.41219         9.89129         0.85566
C         12.36457        12.77458         0.97884
C         11.05740        14.96150         1.20315
C         11.14160        16.39398         0.88048
C         12.35550        14.21011         1.39191
C         12.37607        17.06381         0.91729
C         11.19968        19.16831         0.38080
C         12.41161        18.48523         0.65741
C         13.57147         1.98988         1.18904
C         13.49932         3.41049         1.62597
C         14.80918         1.36162         1.10675
C         14.79047         4.17500         1.77182
C         13.57833         6.32166         1.27287
C         13.59967         7.75718         1.12795
C         14.78669         5.65105         1.59085
C         14.83466         8.45805         1.25134
C         13.63814        10.57694         1.08537
C         13.66817        12.04927         1.05848
C         14.84554         9.88500         1.22394
C         14.81909        12.75668         1.74419
C         13.63105        14.94376         1.28354
C         13.62151        16.35377         1.12788
C         14.84730        14.23692         1.40986
C         14.86107        17.05171         1.08686
C         13.64637        19.16281         0.66316
C         14.87318        18.48053         0.86099
C         16.04472         2.06288         1.29549
C         16.05241         3.43773         1.56959
C         17.28739         1.37788         1.10230
C         17.30424         4.13216         1.91863
C         16.02818         6.35309         1.58980
C         16.05421         7.73380         1.36532
C         17.29165         5.63866         1.95296
C         17.31959         8.44131         0.95945
C         16.10753        10.61801         1.32671
C         16.12105        12.03177         1.48580
C         17.32370         9.92398         1.24841
C         17.33138        12.72930         1.54257
C         16.05976        14.93674         1.44524
C         16.08792        16.34964         1.26131
C         17.30759        14.19837         1.73987
C         17.34274        17.05762         1.19733
C         16.10318        19.15794         0.79513
C         17.33970        18.47518         0.93717
C         18.52282         2.01132         1.23781
C         18.63191         3.37159         1.90570
C         19.71380         1.35289         0.90212
C         19.79836         4.19228         1.36317
C         18.63397         6.38692         1.98282
C         18.58282         7.76626         1.38420
C         19.80714         5.58724         1.41390
C         19.78104         8.46643         1.24248
C         18.55691        10.62638         1.28269
C         18.57061        12.04534         1.42268
C         19.78975         9.90313         1.17060
C         19.82915        12.76098         1.38999
C         18.61285        14.94729         1.67534
C         18.58055        16.38278         1.32339
C         19.85618        14.18775         1.44563
C         19.80409        17.06395         1.15793
C         18.56505        19.16111         0.81587
C         19.80421        18.48512         0.91722
C         20.95427         2.04606         0.82965
C         20.97216         3.48737         0.96812
C         22.13390         1.36575         0.50164
C         22.17001         4.19458         0.66876
C         21.00094         6.30980         1.08837
C         21.01873         7.74258         1.13172
C         22.18933         5.61828         0.73180
C         22.22680         8.45714         0.92815
C         21.02726        10.60085         1.16097
C         21.03780        12.03868         1.23696
C         22.23687         9.87317         1.05775
C         22.29826        12.74005         1.14539
C         21.06734        14.89953         1.30795
C         21.05913        16.36080         1.24929
C         22.28588        14.18600         1.16181
C         22.25409        17.07988         1.23329
C         21.03097        19.17062         0.78807
C         22.27670        18.50710         0.96523
C         23.34678         2.05821         0.24426
C         23.35608         3.48882         0.30402
C         24.52211         1.36701        -0.12703
C         24.53304         4.20603        -0.07341
C         23.39329         6.34336         0.40824
C         23.42176         7.75638         0.54654
C         24.54566         5.64686        -0.05252
C         24.58340         8.51261         0.14772
C         23.56649        10.54744         1.24108
C         23.50401        12.04445         1.06592
C         24.61059         9.89593         0.36293
C         24.82773        12.76371         1.06159
C         23.51893        14.90139         1.05272
C         23.52497        16.34705         1.32561
C         24.72751        14.24856         0.83362
C         24.84387        17.10973         1.21285
C         23.48307        19.20015         0.80904
C         24.81184        18.64412         1.26413
C         25.68277         2.06761        -0.50837
C         25.67138         3.49096        -0.48890
C         26.87001         1.36778        -0.92035
C         26.77805         4.21002        -1.21501
C         25.72370         6.37766        -0.45571
C         25.72697         7.80690        -0.40025
C         26.88357         5.68455        -0.89597
C         26.89960         8.50227        -0.80006
C         25.64353        10.72515        -0.25101
C         25.83174        12.11437         0.14518
C         26.87214         9.97766        -0.89184
C         26.96522        12.82130        -0.23178
C         25.89402        14.99043         0.43751
C         25.90992        16.38773         0.50910
C         27.03570        14.26328        -0.09752
C         26.96676        17.15858        -0.16080
C         26.02040        19.29650         0.64252
C         27.08864        18.60893         0.13445
C         28.07249         2.02300        -1.17382
C         28.14143         3.52503        -0.98174
C         29.28188         1.31880        -1.34385
C         29.24165         4.20205        -1.81096
C         28.09509         6.37326        -1.15260
C         28.08081         7.79509        -1.10344
C         29.34748         5.67791        -1.44916
C         29.31078         8.51394        -1.49352
C         28.11694        10.73743        -0.92976
C         28.13793        12.10958        -0.69626
C         29.33665        10.03788        -1.37315
C         29.37396        12.83902        -0.83961
C         28.17212        14.93588        -0.54805
C         28.17975        16.40598        -0.66610
C         29.37094        14.21935        -0.87241
C         29.48709        17.10747        -0.71644
C         28.34429        19.24620        -0.14796
C         29.50291        18.54377        -0.47967
C         30.53172         1.98111        -1.41358
C         30.56471         3.43471        -1.74491
C         31.71198         1.32079        -1.08050
C         31.86541         4.16348        -1.66608
C         30.56495         6.35125        -1.48791
C         30.60266         7.80611        -1.44572
C         31.85495         5.64612        -1.49880
C         31.78792         8.52577        -1.47674
C         30.63408        10.67830        -1.20165
C         30.66790        12.09032        -0.69072
C         31.80907         9.96709        -1.33916
C         31.87812        12.85494        -1.15774
C         30.56179        14.96928        -1.43199
C         30.64613        16.40788        -0.96921
C         31.86222        14.20821        -1.31170
C         31.93454        17.08225        -1.04019
C         30.75943        19.21301        -0.56842
C         31.94614        18.52949        -0.81569
C         32.94998         2.00799        -0.83409
C         33.16912         3.38132        -1.43882
C         33.93098         1.41761        -0.08464
C         34.22737         4.18732        -0.73553
C         33.02950         6.32750        -1.35173
C         33.10541         7.81049        -1.63381
C         34.36957         5.62385        -1.19288
C         34.26602         8.53439        -0.97557
C         33.08027        10.69005        -1.21467
C         33.11379        12.09312        -1.20984
C         34.28965         9.95890        -1.02939
C         34.36103        12.80978        -1.16004
C         33.11751        14.94142        -1.72325
C         33.10115        16.40635        -1.32759
C         34.37995        14.22724        -1.27982
C         34.39403        17.14678        -1.58220
C         33.18946        19.22108        -0.82292
C         34.39331        18.56723        -1.06666
C         35.07937         2.18008         0.51625
C         35.21535         3.58278        -0.02528
C         36.38681         1.43648         0.49943
C         36.45853         4.29483         0.27709
C         35.21917         6.39201        -0.16292
C         35.37757         7.84560        -0.51103
C         36.51689         5.68452         0.12081
C         36.60187         8.53270        -0.21635
C         35.51626        10.65474        -0.79843
C         35.55755        12.08671        -0.91493
C         36.67845         9.92636        -0.46100
C         36.79141        12.79365        -0.71570
C         35.58757        14.94050        -1.08145
C         35.62523        16.37063        -1.14451
C         36.80025        14.22439        -0.77962
C         36.82403        17.06168        -0.93235
C         35.62566        19.23053        -0.93681
C         36.84442        18.51805        -0.92407
C         37.58557         2.10718         0.62231
C         37.62670         3.55829         0.59527
C         38.82977         1.39755         0.81166
C         38.85284         4.25118         0.81310
C         37.71344         6.40520         0.39289
C         37.73804         7.81708         0.27285
C         38.89748         5.67518         0.76299
C         38.89461         8.58299         0.85215
C         38.02343        10.58835        -0.57761
C         37.98154        12.08877        -0.43558
C         39.10131         9.94929         0.25012
C         39.19757        12.77978        -0.20494
C         38.02310        14.92214        -0.59684
C         38.04629        16.35212        -0.67888
C         39.23055        14.20664        -0.31682
C         39.26749        17.05654        -0.51787
C         38.06876        19.19253        -0.77663
C         39.27848        18.49262        -0.59718
C         39.99814         2.06951         1.04384
C         40.04598         3.50296         1.06373
C         41.25431         4.20028         1.29314
C         40.13227         6.36434         1.01279
C         40.17475         7.79148         0.97310
C         41.29474         5.58317         1.27528
C         41.35504         8.53629         1.19727
C         40.28520        10.62887         0.47026
C         40.38670        12.05540         0.14203
C         41.39563         9.91271         1.04361
C         41.58573        12.76609         0.26159
C         40.46785        14.90178        -0.16480
C         40.49528        16.35451        -0.28047
C         41.62914        14.15276         0.09488
C         41.68066        17.08949        -0.15519
C         40.51056        19.19007        -0.46079
C         41.68541        18.49346        -0.25029
O         13.23642        12.61566        -0.21599
O         27.15032        16.88828        -1.60336
O         17.96923        14.64014         2.97884
O         29.15288         9.36913        -2.67474
O         17.11170         4.87342         3.19984
O         31.31981         3.74527        -2.98248
O         14.05205         3.65308         2.96294
O         24.40872        16.57613         2.50506
O         25.78993        10.50781        -1.69957
O         11.56840        14.56509         2.56659
O          2.09285         9.81065         0.80588
H          2.03397        10.73351         1.13275
O         34.50728        17.26889        -3.04237
H         34.18827        16.40970        -3.42191
O          4.63176         6.65610        -2.98123
H          4.41961         5.84343        -3.50699
O         24.88266        19.05255         2.67038
H         24.51305        18.29690         3.18983
O         25.40568        12.63471         2.41697
H         24.77647        13.05141         3.04338
O         33.12653        14.92336        -3.20293
H         32.18473        15.03948        -3.48327
O          7.00290         4.11255         1.72039
H          7.02698         3.16619         1.97980
O         35.04456         5.63246        -2.47883
H         34.75647         4.80648        -2.94493
O         14.54561        12.64469         3.17165
H         15.27404        13.08835         3.65612
O         34.73808         2.34033         1.94619
H         33.98773         2.96995         1.99933
O         38.47651         8.85282         2.26890
H         39.24325         9.28148         2.70824
O         18.97885         3.06872         3.28708
H         18.45789         3.67915         3.85775
O         30.32508        15.05840        -2.88974
H         29.47940        15.54030        -3.02349
O         17.31517         8.33579        -0.52932
H         16.56705         8.88090        -0.85617
O         33.43815         7.86937        -3.06667
H         34.18550         7.23512        -3.20123
O         23.97140        10.27955         2.64348
H         23.22608        10.55075         3.22022
O         34.43226         6.34390         1.07224
H         34.93791         6.81887         1.76556
O         30.83165        11.95684         0.77341
H         30.82795        12.85968         1.15707
O         11.49473         4.08444         2.75430
H         12.19293         4.13192         3.44767
O         28.51534         3.75047         0.40296
H         27.88171         3.26430         0.97171
O         26.34658         4.11231        -2.59846
H         27.11409         4.34124        -3.17729
O          2.15984        17.21639         0.65338
H          2.86961        17.69269         1.13453
O         11.89622         3.68261        -0.84179
H         11.30357         3.32355        -1.53448
O         18.96701         6.61508         3.38988
H         18.49417         5.92159         3.90866
O         28.85105         4.16787        -3.20827
H         29.67805         4.30057        -3.73049
O         11.46434         7.70375        -1.16507
H         11.51876         8.63190        -1.47889
O         38.42883        10.35044        -1.98759
H         37.76180        10.78882        -2.55866
O          9.61047        12.65958         2.64968
H         10.28480        13.26472         3.04868
O         33.75717         3.16229        -2.76555
H         32.99380         3.00149        -3.37282
O          3.47730         4.30592        -3.64590
H          3.64354         3.38917        -3.95574
H          0.80415         1.47790        -2.34290
H          0.81378         3.91309        -2.66397
H          2.87762         0.24907        -1.71240
H          0.70246         5.69105        -1.69262
H          0.54477         8.08783        -1.18701
H          0.59422        10.09938        -1.70324
H          0.69673        12.50104        -1.95422
H          0.71621        14.42666        -1.99836
H          0.64904        16.85173        -1.81630
H          1.87305        19.01150        -1.60765
H          5.21179         0.25300        -0.95013
H          4.03661        20.17912        -1.48127
H          7.54875         0.24481        -0.15317
H          6.38394        20.21823        -0.75406
H          9.93086         0.21306         0.46754
H          8.78553        20.24535        -0.22466
H         12.40037         0.19948         0.79392
H         11.22714        20.25496         0.21034
H         14.85241         0.29971         0.82222
H         13.66449        20.24596         0.47102
H         17.26002         0.33236         0.75955
H         16.11161        20.24087         0.60146
H         19.67671         0.29880         0.58703
H         18.55865        20.24604         0.63409
H         22.11441         0.26997         0.40457
H         21.02561        20.24963         0.57487
H         24.51364         0.26780        -0.16468
H         23.43670        20.28071         0.60361
H         26.83556         0.26903        -0.97387
H         26.12095        20.37819         0.82273
H         29.27346         0.22103        -1.25890
H         28.41929        20.33068         0.02436
H         31.64610         0.26604        -0.76997
H         30.78975        20.30220        -0.41542
H         33.76656         0.39655         0.29634
H         33.19933        20.29043        -0.56043
H         36.36913         0.33619         0.52498
H         35.63831        20.31395        -0.74104
H         38.81261         0.29798         0.80457
H         38.08083        20.29270        -0.78658
H         40.93128         1.51238         1.21406
H         42.17406         3.62931         1.48699
H         42.25460         6.08261         1.46399
H         42.28334         8.01971         1.48022
H         42.33551        10.43970         1.25419
H         42.52154        12.24030         0.49454
H         42.59953        14.65654         0.19805
H         42.63587        16.57719         0.02155
H         40.51522        20.28752        -0.52537
H         42.63618        19.03518        -0.14816
