         651
 CSIRO Nanostructure Databank - Neutral Graphene Oxide Data Set
C          6.65922        31.44551         1.06293
C          6.55688        32.77912         1.24662
C          8.97771        27.41800        -0.58287
C          8.96788        28.85998        -0.50207
C          8.00241        29.41263         0.30851
C          8.97132        31.74082         0.18487
C          8.01255        30.80572         0.86566
C          8.89820        33.09455         0.45981
C          7.70756        33.66259         1.08336
C          8.77921        35.89097         1.14920
C          7.66158        35.00125         1.39119
C          8.74096        37.21114         1.54581
C         11.42068        23.33147        -2.14006
C         10.91309        24.60235        -2.21246
C          9.94138        25.25019        -1.38386
C         11.43135        28.00090        -2.29552
C          9.71683        26.63973        -1.47974
C         11.32138        29.19898        -1.63434
C         10.01691        29.74974        -1.12861
C         11.31966        31.95267        -0.63905
C         10.04491        31.19064        -0.68001
C         11.24948        33.44667        -0.47001
C          9.99314        33.98489         0.16758
C         11.20309        36.11113         0.47193
C          9.96750        35.32117         0.52073
C         11.13132        37.58168         0.64766
C          9.81779        38.16371         1.22250
C         11.08312        40.21467         1.82092
C          9.92492        39.45790         1.88603
C         11.10736        41.57179         2.30735
C         13.81696        19.34457        -2.79262
C         13.77062        20.76583        -2.74984
C         12.69331        21.48679        -3.19787
C         13.81657        23.74365        -2.67265
C         12.54852        22.98293        -3.10058
C         13.87877        25.12130        -2.64305
C         12.70600        25.96758        -2.84671
C         13.99944        28.08196        -2.60818
C         12.68951        27.32680        -2.59574
C         13.84541        29.47170        -2.00727
C         12.52922        30.05421        -1.59983
C         13.79994        32.02228        -0.64443
C         12.52976        31.35465        -0.88750
C         13.77782        33.32904         0.06448
C         12.46249        34.01988         0.22581
C         13.69966        36.19758         0.78195
C         12.41777        35.48386         0.41451
C         13.63924        37.67555         0.36030
C         12.36867        38.34157         0.84173
C         13.54118        40.42297         1.46890
C         12.33244        39.64664         1.32100
C         13.52202        41.71753         1.97478
C         12.25901        42.31649         2.34593
C         13.43542        44.56480         2.52631
C         12.19380        43.75360         2.81815
C         13.37513        45.93399         2.42335
C         16.11171        14.94750        -2.56178
C         15.89125        16.31636        -2.77588
C         14.80844        17.15161        -2.51525
C         16.13964        19.25176        -1.94874
C         14.95515        18.58776        -2.45152
C         16.02461        20.66061        -1.53544
C         14.84637        21.47081        -2.01634
C         16.19687        23.61190        -1.66006
C         15.01059        22.93961        -2.27635
C         16.03697        25.08750        -1.30114
C         15.22990        25.81806        -2.38562
C         16.28936        27.93564        -1.60004
C         15.15110        27.29038        -2.03395
C         16.25861        29.40107        -1.51172
C         15.06334        30.09779        -1.47688
C         16.29377        32.00240        -0.31556
C         15.01588        31.41455        -0.91238
C         16.25641        33.50832        -0.40948
C         14.99451        34.18135         0.01293
C         16.18653        36.36187        -0.00810
C         14.94475        35.51749         0.24204
C         16.08905        37.73782         0.62595
C         14.90635        38.38400         0.76025
C         16.02287        40.42823         1.71137
C         14.84594        39.88489         0.92645
C         16.01875        41.86697         2.03094
C         14.75706        42.49145         2.14156
C         15.92100        44.60185         2.56251
C         14.70807        43.87803         2.42259
C         15.83484        46.06142         2.71061
C         14.57169        46.72797         2.35922
C         15.80360        48.78482         1.79629
C         14.58857        48.07949         2.05210
C         15.70018        50.18945         1.25602
C         18.65457        10.87054        -3.07586
C         18.62192        12.17699        -2.47420
C         17.52685        12.99621        -2.78733
C         18.61553        15.06705        -2.06031
C         17.42375        14.38286        -2.49143
C         18.68137        16.46259        -1.77120
C         17.68233        17.34123        -2.24761
C         18.41462        19.20586        -0.87385
C         17.39138        18.61558        -1.69011
C         18.27302        20.58955        -0.49497
C         17.21209        21.34312        -0.97734
C         18.27732        23.55199        -0.17860
C         17.11155        22.81106        -0.77613
C         18.45389        25.02131        -0.37890
C         17.34456        25.79944        -0.93862
C         18.53234        27.93084        -0.32182
C         17.43470        27.16917        -1.06021
C         19.21779        29.06861        -1.03067
C         17.45139        30.21975        -1.48510
C         18.93863        32.13179        -0.79123
C         17.55959        31.46091        -0.94404
C         18.82478        33.50616        -0.13841
C         17.55542        34.24631        -0.26470
C         18.74474        36.31902         0.45051
C         17.43012        35.57607         0.45666
C         18.68739        37.78939         0.59518
C         17.36367        38.49106         0.73113
C         18.57715        40.54639         1.64383
C         17.34361        39.75281         1.52887
C         18.52724        41.90241         2.03650
C         17.23670        42.56274         2.23289
C         18.41334        44.74027         2.57343
C         17.17967        43.96249         2.49909
C         18.39954        46.10257         2.49638
C         17.13616        46.86238         2.57696
C         18.25530        48.75425         1.35969
C         17.05152        48.19506         1.96991
C         18.10968        49.90173         0.50691
C         16.88875        50.60216         0.41387
C         17.84803        52.38177        -1.00925
C         16.75527        51.77276        -0.34817
C         17.76179        53.60627        -1.66946
C         21.23927         6.68252        -2.95799
C         21.00555         7.91208        -2.38463
C         20.04094         8.73458        -3.07258
C         20.79292        10.62007        -1.03656
C         19.39200         9.82625        -2.50131
C         20.81140        12.04649        -1.18044
C         19.73726        12.76710        -1.74881
C         21.02031        14.93651        -1.13224
C         19.82111        14.24940        -1.79681
C         20.90207        16.34401        -0.66795
C         19.72917        17.07858        -0.98470
C         20.69084        19.03278         0.14482
C         19.60711        18.44815        -0.58033
C         20.55744        20.40142         0.66789
C         19.33282        21.21158         0.33008
C         20.76013        23.34089         0.45374
C         19.40330        22.72319         0.38732
C         20.83232        24.86077         0.35485
C         19.58868        25.63163         0.10283
C         20.89699        27.73239         0.65350
C         19.51980        27.08384         0.52706
C         21.09810        29.07196         0.43287
C         20.17554        29.83719        -0.37454
C         21.23962        32.01610         0.37579
C         19.92997        31.28031         0.06502
C         21.21170        33.42768         0.46815
C         19.95581        34.15120         0.34289
C         21.19994        36.34708         0.72705
C         19.91541        35.61127         0.54711
C         21.15483        37.81446         1.02012
C         19.86513        38.52125         1.08203
C         21.09575        40.65255         1.38217
C         19.81173        39.86425         1.41299
C         20.99883        41.99830         2.07108
C         19.75078        42.61677         2.25815
C         20.94490        44.82340         2.55641
C         19.70086        44.00250         2.87514
C         20.91871        46.15481         2.32989
C         19.64395        46.95633         2.46949
C         20.65518        48.55702         0.70748
C         19.48176        48.08701         1.45362
C         20.61477        49.84357         0.01963
C         19.26406        50.34905        -0.29044
C         20.37123        52.41682        -1.30124
C         19.13514        51.65713        -1.04758
C         20.22626        53.68446        -1.89279
C         18.93013        54.23289        -2.20531
C         20.00285        56.03185        -3.53772
C         18.84472        55.39955        -2.98291
C         19.88793        57.01795        -4.53465
C         23.59408         3.71925        -2.82373
C         22.49910         4.48855        -3.17468
C         23.22321         6.22351        -1.40849
C         22.15738         5.68134        -2.41943
C         23.16397         7.65768        -1.06842
C         21.78079         8.31500        -1.08819
C         23.11985        10.45555        -0.46922
C         21.92056         9.82078        -0.89858
C         23.09282        11.87155        -0.23240
C         21.99182        12.68408        -0.64615
C         23.12151        14.68894         0.19720
C         22.05107        14.08946        -0.49552
C         23.28222        16.20415         0.18212
C         21.97078        16.94857         0.00737
C         23.06046        18.99439         0.94605
C         21.88223        18.31452         0.40810
C         23.09348        20.38709         1.09966
C         21.82931        21.13576         1.10328
C         23.11936        23.26030         1.21307
C         21.90410        22.60354         1.00516
C         23.14515        24.71573         1.27045
C         22.01106        25.47188         0.98127
C         23.22412        27.58397         1.73895
C         21.94128        26.90727         1.30304
C         23.38058        29.03875         1.52344
C         22.43716        29.75315         0.59533
C         23.53985        31.88514         1.32128
C         22.37146        31.26102         0.78523
C         23.68873        33.35395         1.20568
C         22.45986        34.17025         0.70760
C         23.51481        36.22986         1.66704
C         22.43293        35.59874         1.09954
C         23.38978        37.62153         2.28565
C         22.28908        38.46314         1.70106
C         23.47225        40.52281         2.21622
C         22.27134        39.82210         1.85437
C         23.43999        41.92368         2.30308
C         22.22033        42.64996         2.34689
C         23.43164        44.85289         2.18999
C         22.25853        44.10261         2.78011
C         23.43626        46.19864         2.00766
C         22.18013        47.01649         2.23543
C         23.21982        48.83607         0.77692
C         22.06797        48.00505         1.07212
C         23.11336        50.00987        -0.01851
C         21.77137        50.51070        -0.41572
C         22.82827        52.52258        -1.47338
C         21.63142        51.80420        -1.03672
C         22.74692        53.98562        -1.74262
C         21.39337        54.55989        -2.08400
C         22.45141        56.19778        -3.67904
C         21.30848        55.64947        -3.07929
C         22.33251        57.11797        -4.75596
C         21.03356        57.55587        -5.16647
C         22.06609        58.97938        -6.85996
C         20.92679        58.50690        -6.22176
C         24.57917         4.19656        -1.94092
C         25.62469         6.17301        -0.91168
C         24.50396         5.50180        -1.39684
C         25.55356         7.53648        -0.48680
C         24.29915         8.28654        -0.60324
C         25.41677        10.29441         0.42110
C         24.30517         9.69618        -0.20204
C         25.34394        11.68145         0.78667
C         24.20256        12.48586         0.40471
C         25.30719        14.50837         1.38197
C         24.16083        13.87874         0.68701
C         25.31691        15.96564         1.69174
C         24.02717        16.74784         1.42291
C         25.42007        18.87075         1.61382
C         24.23745        18.23941         1.27094
C         25.49359        20.31218         1.64638
C         24.30298        21.08160         1.40963
C         25.56089        23.18938         1.75798
C         24.32051        22.50179         1.50331
C         25.58747        24.59043         1.82012
C         24.38410        25.37140         1.67364
C         25.61743        27.41948         2.41610
C         24.43156        26.75476         1.84509
C         25.58039        28.92115         2.65249
C         24.49072        29.69451         1.99540
C         25.71821        31.79402         2.56412
C         24.58587        31.12697         1.88279
C         25.73615        33.28923         2.66476
C         24.71636        34.07492         1.94938
C         25.83720        36.16232         2.59385
C         24.72513        35.49082         2.03312
C         25.89334        37.64405         2.89202
C         24.68005        38.39641         2.39768
C         25.97586        40.49874         2.75786
C         24.69223        39.76708         2.39453
C         25.99190        41.93904         2.31399
C         24.71866        42.64028         2.15402
C         25.96932        44.88560         2.08476
C         24.69237        44.11751         1.96531
C         25.88547        46.32437         1.72433
C         24.65318        46.92686         1.65250
C         25.70983        48.92584         0.58959
C         24.53273        48.43528         1.45493
C         25.61463        50.45598         0.38410
C         24.27937        50.77471        -0.28601
C         25.37627        52.90868        -1.20218
C         24.21266        51.97052        -1.10080
C         25.27158        54.02190        -2.14460
C         23.96874        54.68385        -2.25396
C         24.99040        56.20245        -4.03836
C         23.81263        55.84438        -3.21597
C         24.79842        57.10429        -5.09812
C         23.50493        57.59627        -5.44116
C         23.33975        58.52668        -6.49061
C         26.68038         8.13409         0.02563
C         27.94580        10.24577         0.20346
C         26.70289         9.48257         0.67688
C         28.29198        11.39348         0.85238
C         26.43349        12.37857         1.36990
C         27.82913        14.45021         1.39316
C         26.58814        13.78388         1.33641
C         27.81632        15.89853         1.60660
C         26.64325        16.61838         1.72960
C         27.90225        18.81285         1.86621
C         26.61539        18.07975         2.12403
C         27.91924        20.17439         2.01124
C         26.70948        20.97247         1.95066
C         28.01654        23.06800         2.14298
C         26.78498        22.41160         1.95726
C         28.10984        24.50396         2.14466
C         26.90529        25.32821         1.75279
C         28.08631        27.35476         2.63333
C         26.91441        26.71883         2.36311
C         28.15466        28.80906         2.95957
C         26.88495        29.61484         2.91097
C         28.24622        31.66584         2.59224
C         27.00794        31.05957         2.66201
C         28.33984        33.13992         2.81283
C         27.06214        33.93340         2.94268
C         28.38175        36.13323         2.52510
C         27.06607        35.43459         2.88302
C         28.31731        37.54622         2.13050
C         27.18624        38.30991         2.41699
C         28.32049        40.43172         1.81955
C         27.19134        39.73041         2.29219
C         28.33265        41.83360         1.65938
C         27.16180        42.59083         1.94964
C         28.45721        44.74571         1.40620
C         27.23453        44.08383         1.93209
C         28.44803        46.24149         1.29240
C         27.17084        47.04550         1.52955
C         28.14837        48.91816         0.06311
C         27.10631        48.52115         1.10076
C         28.00127        50.19802        -0.54828
C         26.81920        50.94098        -0.42451
C         27.86932        52.83437        -1.78298
C         26.77205        52.30149        -0.94788
C         27.68904        53.98806        -2.55670
C         26.40854        54.60472        -2.74595
C         26.24382        55.65993        -3.69998
C         29.22060        12.44858         0.56745
C         30.22136        14.61274         0.73667
C         29.07125        13.77889         0.98071
C         30.28943        15.93843         1.07860
C         29.15230        16.60678         1.82258
C         30.45448        18.77278         1.63530
C         29.11796        18.07526         1.37982
C         30.46543        20.05854         2.14558
C         29.20426        20.81024         2.36301
C         30.57729        22.98889         2.46328
C         29.23691        22.30286         2.50641
C         30.60626        24.47469         2.43868
C         29.29721        25.15796         2.36894
C         30.61356        27.31577         2.36336
C         29.36267        26.57981         2.81762
C         30.59770        28.66295         2.65575
C         29.43390        29.51578         2.68670
C         30.64370        31.62681         1.87368
C         29.48770        30.89822         2.46531
C         30.65894        33.01111         1.80363
C         29.69261        33.85563         2.62612
C         30.63852        35.93413         1.30559
C         29.49002        35.26054         2.01158
C         30.66931        37.39932         1.14061
C         29.57699        38.19430         1.72737
C         30.63966        40.33542         0.78251
C         29.56732        39.68348         1.56320
C         30.67985        41.68904         0.70605
C         29.41209        42.50576         0.84837
C         30.79480        44.66407         0.60593
C         29.55651        44.00129         1.08545
C         30.69760        46.09341         0.14925
C         29.46095        46.85648         0.40514
C         30.41829        48.69175        -0.95879
C         29.31488        48.13353        -0.15347
C         30.31540        50.04066        -1.40924
C         29.13985        50.78117        -1.26892
C         29.04814        52.06632        -1.85325
C         31.44087        16.71128         0.73885
C         32.78164        18.72632         0.52320
C         31.59484        18.05540         1.04919
C         33.32333        19.83141         1.11885
C         31.68955        20.82691         2.28222
C         32.89012        22.87204         1.38442
C         31.77026        22.18677         2.09868
C         32.83739        24.39415         1.26602
C         31.78421        25.21309         1.90846
C         32.85950        27.30241         1.10418
C         31.80362        26.60697         1.88288
C         32.85896        28.67894         0.81789
C         32.12944        29.66575         1.56033
C         32.33518        31.53511        -0.08930
C         31.68233        30.88979         1.12802
C         32.80674        32.91563         0.33910
C         31.87245        33.68270         1.23610
C         32.95752        35.86066         0.25799
C         31.92325        35.18799         1.14146
C         32.74099        37.26384        -0.14461
C         31.71038        38.02416         0.42877
C         32.83014        40.14257        -0.46815
C         31.54458        39.46029        -0.05454
C         32.92514        41.54126        -0.48005
C         31.90724        42.34844         0.21327
C         32.98277        44.44384        -0.77421
C         31.96195        43.84020         0.12515
C         32.84582        45.76406        -1.17603
C         31.51941        46.46353        -1.07125
C         31.53546        47.94393        -1.27736
C         34.25474        20.81600         0.63671
C         35.21577        22.99864         0.44065
C         34.14354        22.17659         0.90861
C         35.17962        24.38325         0.33406
C         34.00078        25.13121         0.72867
C         34.88791        27.06819        -0.49753
C         33.90711        26.49143         0.50844
C         34.92533        28.56378        -0.58173
C         33.66038        29.25153        -0.29335
C         34.60013        31.36947        -1.48382
C         33.46434        30.67689        -0.70066
C         34.77445        32.84504        -1.18675
C         33.82460        33.60952        -0.50012
C         34.90087        35.65082        -1.29374
C         33.91458        35.02791        -0.51112
C         34.82715        37.08887        -1.62790
C         33.69322        37.90390        -1.07445
C         35.01162        39.98835        -1.60143
C         33.85144        39.36971        -1.04015
C         35.08579        41.39755        -1.61639
C         34.05213        42.19950        -1.07043
C         34.06465        43.62125        -1.19343
C         36.33849        25.09802        -0.11757
C         37.37439        27.17613        -0.92449
C         36.26049        26.43971        -0.44246
C         37.27501        28.51982        -1.29857
C         36.01584        29.23868        -1.10914
C         37.07364        31.29590        -1.92580
C         35.94072        30.63776        -1.42674
C         37.04446        32.70887        -2.18314
C         35.91550        33.48009        -1.75395
C         37.09926        35.56385        -2.43654
C         35.96382        34.89632        -1.83583
C         37.14014        36.97807        -2.50428
C         36.05530        37.78215        -2.08424
C         36.08437        39.17792        -2.10917
C         38.38646        29.21746        -1.84675
C         39.42248        31.26467        -2.74653
C         38.30423        30.56802        -2.16216
C         39.36040        32.59683        -3.03038
C         38.18557        33.37360        -2.71148
C         38.18720        34.77263        -2.86717
O         32.55783        43.15837         1.27814
O         27.47747        11.69135         1.98551
O         32.85800        29.60569        -1.51738
O         18.07244        38.54915        -0.53380
O         16.91230        34.07513        -1.57553
O         21.13354        23.99759        -0.81010
O         33.10714        33.06779         1.75507
O         22.33018        47.73572         3.45304
O         33.08498        35.77496         1.75199
O         22.17368        27.22508         2.71677
O         32.87024        20.10458         2.42146
O         18.55897        29.63082        -2.11484
O         29.51903        35.26499         0.55448
O         32.26098        23.51975         0.19464
O         18.93452        21.96524         1.52111
O         27.49294        29.22355         4.19418
O         21.48249        37.32690        -0.34820
O         24.03571        56.07703        -1.78951
O         24.68028        43.28429         0.76059
O         16.23835        23.23648        -3.05821
O         13.11311        30.32481        -2.96180
O          9.50062        30.81001        -2.01587
O         25.22968        28.01544         3.72192
O         30.84689        23.75585         3.70734
O         22.04871        54.79306        -0.76548
O         20.98191        14.75638        -2.58238
O         16.48312        46.67039         3.87133
O         16.56046        39.58748         2.76971
O         19.02693        50.37932        -1.75316
O         20.89610        20.54790         2.07768
O         11.48903        25.41087        -3.20881
O         13.04244        33.29416         1.35306
O         23.63162        51.79263        -2.45414
O         27.95307        35.97656         3.92005
O         19.56411         9.98399        -1.10730
O         31.33525        45.76313         1.41787
O         17.84320        28.84078         0.57124
O         29.09079        21.44687         3.69049
O         22.07271         5.46217        -0.96241
O         27.74246        33.44158         4.12654
O         21.33486        47.49510        -0.07241
O         23.55412        33.81610        -0.18627
O         10.25541        27.30333        -2.58852
O         31.81724        29.30528         2.87495
O         16.99777        16.97936        -3.38984
O         33.63693        37.37488        -2.46484
O         26.79368        44.60772         3.24936
O         30.10752        39.09405         2.80806
O         25.25710        32.48450         3.79378
O         14.85473        21.02170        -0.62864
O         28.16559        46.89828         2.58782
O         26.12980        53.23462        -0.01454
O         10.14303        38.22055        -0.21933
O         17.04733        23.28966         0.60531
O         25.07579        14.98879         2.77387
O         28.93860        18.01758        -0.07361
H         28.90894        18.93492        -0.41730
O         25.86312        37.76361         4.36582
H         26.63760        37.24132         4.69436
O         11.02080        44.39527         2.30759
H         11.04134        44.34091         1.33042
O         12.19127        23.40835        -4.43912
H         12.99422        23.35394        -4.99704
O         34.32987        26.64882        -1.80245
H         34.91344        27.01399        -2.50125
O         27.08806        25.59149         0.30663
H         27.00460        24.73557        -0.16556
O          8.55571        30.62177         2.23586
H          8.52083        31.49545         2.68198
O         23.13174        16.58532         2.53903
H         23.56710        15.97722         3.18259
O         25.60287        48.28099        -0.69803
H         24.69976        48.42469        -1.05547
O         19.27445        31.08823         1.34509
H         18.69915        30.27142         1.24793
O         24.12130        16.50483        -0.96827
H         23.63946        16.23085        -1.77766
O         27.42299        49.31287         2.26862
H         27.95889        48.74148         2.87041
O         22.99003        37.35551         3.68091
H         23.80861        37.32993         4.23000
O         21.32763        40.96886        -0.02719
H         21.28717        40.13102        -0.53766
O         11.31451        33.99918        -1.82638
H         10.65037        33.52716        -2.37333
O         30.28463        34.03577         3.92183
H         29.54732        34.10168         4.57386
O         13.60824        37.72720        -1.10619
H         12.73756        37.38254        -1.40519
O         14.48308        50.38213         0.52715
H         14.51103        49.81664        -0.27154
O         19.52576        32.33230        -2.09026
H         18.91390        32.89518        -2.61151
O         17.17030        35.25590         1.85413
H         17.82747        34.59398         2.15755
O         22.50522        44.08321         4.21805
H         22.50825        45.01447         4.52983
O         19.69116        43.78308         4.31566
H         19.63946        44.66078         4.75096
O         28.89394        42.47864        -0.54322
H         28.84553        41.54237        -0.83676
O         34.21261        31.32887        -2.89015
H         33.72447        30.48138        -3.01580
O         31.35819        31.75582        -1.12733
H         31.30475        30.92482        -1.65130
O         18.98119        27.03173         1.86603
H         18.33670        27.79491         1.88845
O         15.96315        25.78437        -3.63186
H         15.58757        26.48797        -4.20826
O         29.44512        16.59157         3.23521
H         29.33323        15.67760         3.56866
O         26.79169         9.18787         2.09435
H         27.00575        10.03204         2.55804
O         26.02768        40.53623         4.21883
H         26.00213        39.59678         4.53698
O         16.29506        31.66448         1.09818
H         16.56577        30.72147         1.17850
O         23.07668        29.57914        -0.73287
H         22.48409        30.00333        -1.39317
O         13.78573        36.17321         2.22919
H         13.82965        35.23020         2.50339
O         30.76747        39.32236        -1.30423
H         31.30273        38.78493        -1.92932
O         15.20679        25.12642        -0.11495
H         15.69110        24.63367         0.59307
O         19.73689        47.62897         3.75380
H         20.71321        47.85379         3.88430
O         21.04532         7.79598         0.04083
H         21.06969         6.81144        -0.03143
O         24.57106        49.01958         2.76611
H         23.76920        48.64765         3.25395
O         16.29073        36.59485        -1.42417
H         15.48095        37.08083        -1.70301
O         14.34550        28.27025        -4.02182
H         13.82354        29.05134        -4.32391
O         25.61644        51.16424         1.63373
H         26.17848        50.66067         2.27111
O         14.99033        40.42742        -0.42416
H         14.41354        39.89668        -1.01749
O         29.51901        26.47135         4.27570
H         29.17646        27.29225         4.69104
O         30.70520        45.90664        -2.18395
H         31.09926        46.21731        -3.02672
O         26.47244        18.03789         3.58588
H         26.60491        18.94801         3.92820
H          5.78020        30.79500         1.18381
H          5.58590        33.23685         1.49039
H          8.37814        26.88697         0.17318
H          7.26782        28.73079         0.76714
H          6.74566        35.42733         1.82856
H          7.87068        37.58505         2.10674
H         11.09832        22.61167        -1.37652
H          9.46966        24.68400        -0.56881
H          9.05783        39.83871         2.44696
H         10.15759        42.03500         2.61362
H         12.93774        18.81263        -3.18578
H         11.85544        20.95872        -3.67836
H         12.07670        43.73987         3.94007
H         12.39487        46.43395         2.40973
H         15.25406        14.26862        -2.45180
H         13.80826        16.72665        -2.35050
H         13.64285        48.60328         1.84784
H         15.64861        50.89226         2.13613
H         18.11481        10.72686        -4.02342
H         16.66452        12.52282        -3.27960
H         15.77705        52.27605        -0.36037
H         16.79044        54.11402        -1.76273
H         20.70372         6.41958        -3.88428
H         19.80746         8.46822        -4.11522
H         17.85222        55.79476        -3.24622
H         18.88897        57.33528        -4.86894
H         23.77464         2.77064        -3.34920
H         21.89117         4.22597        -4.05221
H         21.96960        59.71001        -7.67524
H         19.93152        58.85680        -6.53043
H         25.51039         3.62624        -1.81554
H         26.59022         5.64978        -0.84746
H         25.66481        57.43506        -5.69032
H         24.22732        58.89972        -7.02138
H         27.60160         7.53726         0.11113
H         28.48276         9.91402        -0.69573
H         28.54140        54.36587        -3.14105
H         27.13202        56.00163        -4.25262
H         30.14126        12.19178         0.02119
H         31.08764        14.14762         0.24019
H         31.16460        50.47956        -1.95390
H         29.90177        52.44452        -2.43546
H         32.25867        16.19642         0.21075
H         33.20220        18.34507        -0.41950
H         33.61290        46.20901        -1.82987
H         32.35156        48.40271        -1.85658
H         35.09184        20.49043        -0.00168
H         36.12811        22.48238         0.10398
H         35.96134        41.88476        -2.07018
H         34.88467        44.08689        -1.76118
H         37.29083        24.55621        -0.22085
H         38.34904        26.67022        -1.00083
H         38.04253        37.46540        -2.90321
H         36.98344        39.68535        -2.48984
H         39.32341        28.66966        -2.02672
H         40.33759        30.69325        -2.96044
H         40.22643        33.11250        -3.47036
H         39.07692        35.26539        -3.28703
