         210
 CSIRO Nanostructure Databank - Neutral Graphene Oxide Data Set
C         30.79914        31.91899         2.28799
C         30.84933        33.16361         2.11157
C         30.74701        36.26811         1.32721
C         30.60665        37.42110         0.90291
C         30.64740        40.50370         0.39438
C         30.84795        41.69692         0.77941
C         32.79263        28.95010         1.18527
C         31.96109        29.62418         1.82553
C         32.97220        31.71071         1.29373
C         31.81197        31.03712         1.86190
C         32.98783        33.14231         1.15097
C         31.85205        33.95719         1.51413
C         32.89078        35.91249         0.44291
C         31.81507        35.32070         1.15286
C         32.77277        37.25631        -0.19295
C         31.49417        38.10444        -0.05057
C         32.87737        40.16900        -0.72579
C         31.54833        39.58873        -0.32522
C         32.93014        41.55206        -1.04261
C         30.85301        43.05897         0.95980
C         32.91115        44.33616        -0.08268
C         31.95007        43.66147         0.46547
C         35.46948        27.29469         0.66991
C         35.29948        28.70830         0.33044
C         33.99451        29.49981         0.57045
C         35.31970        31.61112         0.48393
C         34.09278        30.96370         0.78570
C         35.34910        33.04365         0.42923
C         34.14465        33.79478         0.62543
C         35.34070        35.87613        -0.00791
C         34.11336        35.19044         0.31668
C         35.35525        37.27331        -0.24178
C         34.08604        37.98416        -0.48384
C         35.33210        40.14595        -0.65011
C         34.08949        39.45982        -0.57810
C         35.32726        41.55935        -0.75822
C         34.13014        42.29478        -0.86323
C         35.31852        44.45070        -0.59394
C         34.10351        43.75288        -0.62468
C         35.56662        45.85816        -0.47028
C         37.90523        27.32957         0.67130
C         36.59568        26.80627         0.86629
C         37.83501        28.74716         0.46807
C         36.58503        29.45392         0.38682
C         37.80413        31.59082         0.27990
C         36.55717        30.86765         0.33247
C         37.80635        33.01173         0.21230
C         36.57317        33.73776         0.20920
C         37.81712        35.86782        -0.00274
C         36.57703        35.15791         0.06074
C         37.81985        37.29303        -0.14885
C         36.58162        37.98906        -0.31159
C         37.81100        40.10243        -0.40526
C         36.58903        39.41331        -0.48928
C         37.78397        41.60169        -0.28773
C         36.63092        42.26142        -1.05605
C         37.80042        44.30191        -0.33785
C         36.58591        43.74262        -0.68041
C         37.87274        46.53298        -0.31446
C         36.46761        46.71405        -0.59918
C         40.41598        24.59369         0.39775
C         39.36698        25.24521         0.63900
C         40.34182        27.33550         0.22134
C         39.12669        26.63358         0.56243
C         40.30350        28.76108         0.16791
C         39.06889        29.46170         0.31442
C         40.29378        31.59690         0.30926
C         39.04843        30.88422         0.26517
C         40.26226        33.01898         0.36348
C         39.04726        33.72928         0.21828
C         40.28065        35.89600         0.17710
C         39.04545        35.16373         0.13083
C         40.28408        37.31926         0.09594
C         39.05104        38.01605        -0.10677
C         40.29999        40.16630        -0.03612
C         39.04811        39.43728        -0.19824
C         40.34830        41.57627        -0.20263
C         39.11558        42.22970        -0.64856
C         40.33260        44.51436        -0.44455
C         39.10000        43.72646        -0.70138
C         40.33943        45.91978        -1.07836
C         39.04821        46.88901        -0.91978
C         40.52044        48.55291        -1.95188
C         39.41746        48.08048        -1.59186
C         42.85579        24.68669        -0.53762
C         41.60944        25.18932        -0.05706
C         42.67751        27.41389        -0.58805
C         41.55411        26.63643        -0.10870
C         42.73312        28.80549        -0.40322
C         41.52663        29.49616         0.01487
C         42.87110        31.51228         0.55723
C         41.52895        30.88543         0.22149
C         42.84411        33.03473         0.62150
C         41.50158        33.77023         0.59033
C         42.72573        35.92460         0.48890
C         41.50834        35.21556         0.35947
C         42.70026        37.33566         0.53893
C         41.50179        38.03666         0.30527
C         42.71169        40.22853         0.44420
C         41.50381        39.48111         0.25614
C         42.69278        41.64570         0.39828
C         41.50222        42.35120         0.05477
C         42.69072        44.61160         0.25436
C         41.46945        43.82427        -0.08498
C         42.77133        46.05476        -0.18383
C         41.64003        46.70322        -0.90887
C         43.07359        48.57031        -1.32880
C         41.75694        47.99751        -1.42915
C         43.71568        25.29820        -1.19773
C         45.02391        27.55526        -1.67715
C         43.77484        26.75015        -1.34660
C         45.12605        28.93976        -1.13087
C         43.95997        29.56217        -0.62812
C         45.21506        31.67684        -0.34427
C         44.03020        30.94449        -0.23454
C         45.24784        33.12557        -0.09541
C         44.03178        33.81344         0.27348
C         45.18943        35.98960         0.25510
C         43.99907        35.22142         0.38756
C         45.21092        37.35828         0.59257
C         43.93058        38.04938         1.02942
C         45.15342        40.21582         0.86515
C         43.95086        39.53571         0.73077
C         45.21235        41.64652         0.80454
C         43.92835        42.37183         0.76270
C         45.26804        44.53746         0.49131
C         43.95378        43.88975         0.65552
C         45.28613        45.93953         0.08825
C         44.15236        46.64760        -0.27697
C         44.03574        47.94193        -0.83319
C         47.38678        27.59667        -1.71469
C         46.34452        26.95270        -1.90298
C         47.63228        28.95799        -1.36726
C         46.39059        29.61526        -1.05918
C         47.67894        31.68642        -0.67329
C         46.43921        31.00579        -0.71336
C         47.67367        33.16144        -0.56072
C         46.41239        33.85056        -0.26689
C         47.70918        35.99135         0.25050
C         46.43857        35.36227        -0.30284
C         47.67921        37.36357         0.64238
C         46.42456        38.04653         0.74386
C         47.67468        40.20737         1.14448
C         46.38290        39.44779         1.30115
C         47.67217        41.61769         1.11438
C         46.42307        42.35507         0.93105
C         47.75479        44.44415         0.76653
C         46.44423        43.79517         0.75490
C         47.64116        45.82548         0.42769
C         46.62367        46.45379         0.09440
C         50.16077        29.12119        -1.52998
C         48.86040        29.62349        -1.27273
C         50.18192        31.67819        -0.66163
C         48.91870        31.01433        -0.86990
C         50.13918        33.01027         0.09223
C         48.95892        33.88552        -0.29267
C         50.14519        35.94049         0.54566
C         48.92364        35.29257         0.21741
C         50.13057        37.33201         0.88716
C         48.90200        38.05004         0.94337
C         50.12066        40.19716         1.37604
C         48.89377        39.48282         1.17387
C         50.12176        41.61001         1.52273
C         48.92066        42.31289         1.25132
C         50.24029        44.26802         1.17917
C         48.91496        43.75432         1.05181
C         51.26806        29.68676        -1.37715
C         52.60051        31.79301        -0.60291
C         51.42116        31.02159        -0.91364
C         52.50816        32.98125        -0.21800
C         51.43317        33.84679         0.07081
C         52.52725        36.02961         0.65478
C         51.40024        35.18038         0.40977
C         52.50533        37.22020         1.00463
C         51.36253        38.07139         1.13431
C         52.46810        40.29883         1.59200
C         51.35513        39.42954         1.37704
C         52.61024        41.52717         1.66683
C         51.42020        42.39016         2.02256
C         51.35488        43.76853         1.39235
O         43.76918        43.23721         1.95412
O         39.15194        42.91682        -1.92322
O         48.49511        33.78842        -1.66862
O         42.19509        33.45285         1.86894
O         42.39923        45.70094         1.20107
O         30.94157        38.63351        -1.25243
O         33.29090        37.31477        -1.53915
O         37.97528        45.39415         0.52631
O         34.40189        29.04779        -0.73297
O         44.00190        27.31957        -2.65603
O         31.86499        42.15930        -1.59281
H         31.11646        41.53427        -1.68356
O         43.86555        37.92630         2.48680
H         44.70266        38.31894         2.84843
O         49.90946        32.68098         1.49035
H         50.65858        32.13158         1.80510
O         46.23932        39.28081         2.77206
H         46.22021        40.17808         3.17049
O         37.54453        41.89835         1.11763
H         38.13842        41.34081         1.66296
O         40.26594        45.57399        -2.48538
H         40.31300        46.40239        -3.01133
O         43.14562        31.05666         1.92279
H         42.69194        31.69462         2.52264
O         51.31806        42.50701         3.41190
H         52.10547        42.97342         3.75916
O         46.45304        35.70335        -1.74166
H         47.21647        35.20884        -2.13024
O         36.84327        42.06137        -2.46515
H         36.08529        42.44042        -2.95551
