         331
 CSIRO Nanostructure Databank - Neutral Graphene Oxide Data Set
C         30.66139        57.25733         0.57372
C         30.70507        58.65896         0.74776
C         29.56436        59.39860         1.15829
C         30.84303        61.46172         1.13169
C         29.64389        60.77673         1.34391
C         32.92531        52.96457        -0.17932
C         32.94528        54.37512        -0.18418
C         31.77601        55.11832         0.09956
C         33.04635        57.22181        -0.07324
C         31.80874        56.52474         0.19306
C         33.09230        58.63922         0.09482
C         31.93738        59.35580         0.51767
C         33.23978        61.44668         0.49238
C         32.00468        60.76834         0.71477
C         35.30259        48.63603        -0.27817
C         35.29231        50.05633        -0.28952
C         34.09540        50.80129        -0.25460
C         35.35254        52.91129        -0.57269
C         34.11138        52.21607        -0.33219
C         35.35201        54.31850        -0.71531
C         34.17999        55.06618        -0.46685
C         35.42757        57.21780        -0.72921
C         34.20969        56.50397        -0.44633
C         35.43355        58.63131        -0.64129
C         34.30563        59.34234        -0.16161
C         35.61762        61.46178        -0.19013
C         34.36945        60.76479         0.05633
C         37.78714        44.34402        -0.14935
C         37.72603        45.75243         0.02208
C         36.52228        46.46855        -0.18339
C         37.75070        48.57124        -0.00395
C         36.50793        47.88079        -0.16936
C         37.81402        50.00047        -0.45289
C         36.53417        50.77705        -0.37399
C         37.86219        52.81862        -0.80602
C         36.57462        52.15301        -0.59464
C         37.89599        54.26067        -1.15054
C         36.59307        55.02890        -1.10008
C         37.89458        57.13958        -0.98632
C         36.65150        56.49883        -0.96164
C         37.95089        58.59859        -1.14936
C         36.62585        59.38682        -1.03121
C         37.96064        61.53552        -1.13328
C         36.69592        60.82213        -0.71563
C         40.33146        40.11482        -0.54537
C         40.25702        41.50673        -0.20434
C         39.06502        42.23982        -0.35649
C         40.18551        44.27610         0.43957
C         39.00122        43.61635        -0.02803
C         40.09404        45.70438         0.83678
C         38.90344        46.47157         0.41840
C         40.06552        48.67441         0.93634
C         38.92644        47.87605         0.32495
C         40.28012        50.10732         0.35788
C         39.02815        50.80668        -0.03851
C         40.34650        52.82060        -0.84679
C         39.04349        52.14268        -0.67791
C         40.35421        54.29547        -0.69309
C         39.15971        54.99620        -0.89045
C         40.34567        57.12315        -0.55759
C         39.13878        56.42187        -0.83002
C         40.35746        58.57179        -0.52072
C         39.19555        59.31435        -0.83427
C         40.38124        61.40698        -0.49434
C         39.20876        60.73753        -0.80269
C         42.85151        36.03672        -1.51305
C         42.76739        37.30109        -0.91553
C         41.57764        38.03666        -0.94424
C         42.72934        39.99061         0.05075
C         41.51157        39.37347        -0.45828
C         42.63336        41.36684         0.54679
C         41.41739        42.16855         0.29789
C         42.62650        44.23055         1.13299
C         41.37960        43.54985         0.58839
C         42.63902        45.74066         0.84206
C         41.34632        46.44066         1.23040
C         42.72143        48.58599         0.78043
C         41.39655        47.94794         1.10381
C         42.87008        49.78140        -0.16428
C         41.50651        50.47944        -0.52189
C         42.94148        52.78396        -0.56573
C         41.61367        52.02323        -0.75643
C         42.78143        54.24694        -0.14284
C         41.57179        54.96980        -0.37882
C         42.75337        57.10112         0.03584
C         41.55092        56.40227        -0.28883
C         42.76176        58.53795         0.06894
C         41.56498        59.26230        -0.21582
C         42.77664        61.38181         0.07494
C         41.58055        60.69566        -0.20721
C         45.43670        33.55453        -2.63555
C         44.17225        34.13152        -2.32055
C         45.29555        35.96244        -1.11479
C         44.08233        35.33058        -1.60082
C         45.27604        37.25002        -0.60688
C         43.95978        37.82898        -0.14179
C         45.20290        40.03679         0.21072
C         43.95034        39.32935         0.03288
C         45.19936        41.39832         0.46065
C         43.95825        42.09406         0.80016
C         45.14268        44.27694         1.06041
C         43.90750        43.59222         0.55592
C         45.09197        45.61724         1.60813
C         43.80780        46.44578         1.58307
C         45.27546        48.43062         0.68834
C         43.95068        47.78773         0.91411
C         45.19443        49.95834         0.70669
C         44.00640        50.65569         0.33326
C         45.17248        52.79089         0.55097
C         43.99589        52.04647         0.23395
C         45.17405        54.22629         0.51706
C         43.94420        54.94300         0.23948
C         45.15452        57.08686         0.61045
C         43.94626        56.37884         0.31269
C         45.16107        58.51836         0.64499
C         43.95620        59.23751         0.36304
C         45.17341        61.36783         0.60453
C         43.96966        60.67967         0.35432
C         46.59663        34.05829        -2.12755
C         47.79630        36.00281        -1.09928
C         46.56765        35.15391        -1.10228
C         47.76270        37.33493        -0.69255
C         46.49448        37.98949        -0.40480
C         47.70145        40.07903         0.08511
C         46.47607        39.35232        -0.04160
C         47.72005        41.46571         0.43391
C         46.43586        42.25223         0.33963
C         47.65477        44.27529         1.22604
C         46.37656        43.45053         1.31292
C         47.65475        45.62830         1.36759
C         46.40891        46.37468         1.72621
C         47.62949        48.59668         1.46383
C         46.31258        47.90902         1.73433
C         47.63541        49.94482         1.12739
C         46.37975        50.66975         0.90771
C         47.60604        52.83383         0.87525
C         46.38257        52.09561         0.82420
C         47.60639        54.21829         0.85834
C         46.36906        54.93044         0.77263
C         47.55290        57.08068         1.16367
C         46.37147        56.37996         0.85000
C         47.57072        58.50611         1.17991
C         46.36028        59.22081         0.92282
C         47.53961        61.37348         1.20112
C         46.37672        60.67317         0.89833
C         48.97050        38.06177        -0.52391
C         50.17350        40.11399         0.08297
C         48.96141        39.40502        -0.10534
C         50.17740        41.45881         0.49221
C         48.91635        42.12798         0.68859
C         50.18583        44.28930         0.99803
C         48.94987        43.49134         1.35058
C         50.20090        45.67738         1.11818
C         48.94141        46.35691         1.51178
C         50.13281        48.56860         1.23251
C         48.89746        47.86839         1.59998
C         50.09687        49.98548         1.11505
C         48.87138        50.65307         1.02834
C         50.03671        52.77616         1.52760
C         48.91935        52.12296         0.71503
C         50.10368        54.24359         1.27951
C         48.91250        54.99607         0.78702
C         50.06467        57.11667         1.45195
C         48.79099        56.32430         1.56781
C         50.03990        58.51457         1.31157
C         48.79602        59.21210         1.34606
C         49.96305        61.34295         0.85087
C         48.81625        60.70079         1.57941
C         51.39741        42.17967         0.62882
C         52.63396        44.31553         0.85131
C         51.41726        43.58169         0.80774
C         52.67058        45.71496         0.89402
C         51.40874        46.42730         0.93022
C         52.38691        48.66649         0.41052
C         51.30495        47.86448         0.89162
C         52.54343        50.01551         0.71134
C         51.34452        50.73392         1.03661
C         52.58219        52.85137         1.03417
C         51.35869        52.10647         1.19582
C         52.59841        54.23590         1.24097
C         51.34659        54.90572         1.79784
C         52.62322        57.20247         1.27521
C         51.32846        56.42667         1.66271
C         52.46108        58.58144         0.79362
C         51.24899        59.24040         0.96251
C         52.24413        61.27936        -0.03921
C         51.12333        60.64423         0.57670
C         53.97161        46.36175         1.09032
C         55.25307        48.59550         0.87528
C         54.25864        47.61565         0.58420
C         55.09798        49.98721         0.64660
C         53.80680        50.71214         0.59694
C         54.98676        52.87227         0.22762
C         53.78293        52.10610         0.69211
C         55.05018        54.31299         0.63951
C         53.90782        55.00318         1.32619
C         54.92991        57.14958         0.38368
C         53.81449        56.45504         0.89883
C         54.82788        58.57332         0.11012
C         53.61711        59.24279         0.23927
C         54.54215        61.25708        -0.87816
C         53.46772        60.62872        -0.19697
C         56.28435        50.77041         0.68433
C         57.46411        52.88621         0.23837
C         56.29555        52.15512         0.46079
C         57.41958        54.28721        -0.03070
C         56.18513        55.02831         0.27712
C         57.43111        57.19322        -0.14661
C         56.15831        56.44931         0.17943
C         57.18808        58.53891        -0.79721
C         56.07023        59.37841        -0.21367
C         56.80884        61.20180        -1.78415
C         55.77774        60.61954        -1.03656
C         58.51527        54.95236        -0.55349
C         59.31993        56.89132        -1.78591
C         58.44477        56.34775        -0.89509
C         59.15052        58.26394        -2.36229
C         58.08904        59.08140        -1.65728
C         59.14233        61.10626        -2.58592
C         58.01252        60.49541        -2.04431
C         60.43564        59.04254        -2.51397
C         60.37730        60.38903        -2.70591
O         45.81353        45.77041         2.91672
O         37.21784        59.06547        -2.32953
O         53.33411        48.05322        -0.39816
O         40.53425        45.89637         2.27914
O         41.06495        52.36421        -2.08024
O         42.11009        48.73693         2.12973
O         49.01227        47.02531         2.82578
O         52.19148        57.03554         2.68209
O         39.64599        51.03188         1.28861
O         43.19996        41.55444         1.89642
O         49.73919        52.51700         2.92917
H         50.39859        53.04215         3.44742
O         38.08269        49.86505        -1.91187
H         37.28551        49.45986        -2.31667
O         46.28347        42.90665         2.65255
H         46.08973        43.66125         3.25404
O         49.08276        43.19880         2.78298
H         49.09010        44.05609         3.26001
O         51.33078        54.66017         3.26382
H         50.55789        55.17366         3.60299
O         41.10202        49.89024        -1.78341
H         40.76118        50.63184        -2.34919
O         46.42372        42.81917        -1.02486
H         47.25622        43.32505        -1.14675
O         48.65972        55.92407         2.97537
H         48.41050        56.72192         3.48921
O         38.02837        62.84576        -0.57576
H         38.07308        62.76690         0.39880
O         56.54384        59.88714         1.07910
H         57.33335        60.44084         0.90295
O         49.02131        60.90753         3.03716
H         49.92559        60.58881         3.24618
O         43.55239        52.86562        -1.89136
H         42.81779        53.03851        -2.52567
O         54.83423        52.92207        -1.24881
H         54.86618        51.99636        -1.57324
O         37.18453        54.58613        -2.38500
O         42.73973        46.02364        -0.56913
H         43.23904        45.28869        -1.01186
O         46.57103        34.46943         0.22566
H         46.29531        35.13596         0.89247
O         39.56717        48.83119         2.28552
H         40.32149        49.12078         2.84634
O         58.05658        57.48038         1.14933
H         58.89339        57.95971         0.97522
O         43.80713        37.29030         1.22518
H         43.03550        37.73916         1.63262
O         43.40993        49.20272        -1.38487
H         42.65784        49.16007        -2.03085
O         45.81261        48.31874         3.02496
H         46.42959        47.97362         3.70565
O         45.80112        48.02070        -0.61068
H         45.12240        48.31554        -1.26886
O         58.65653        58.05335        -3.73394
H         58.55247        58.94141        -4.13764
O         43.38568        46.64836         2.94492
H         44.09966        47.16611         3.38631
O         54.23435        55.03928         2.76498
H         53.50596        55.54950         3.19729
O         43.85528        43.69719        -0.91485
H         44.75022        43.41448        -1.24652
O         49.29415        52.28462        -0.69361
H         48.63120        51.80668        -1.23599
O         49.13955        55.35376        -0.61019
H         49.26991        54.50643        -1.09480
O         42.67010        44.05715         2.55449
H         41.95873        44.61388         2.94816
H         29.72117        56.71876         0.76522
H         28.61543        58.87119         1.33184
H         30.89059        62.54934         1.28519
H         28.75185        61.33367         1.66388
H         31.97631        52.44025         0.00614
H         30.83654        54.58440         0.30563
H         33.28996        62.53319         0.65811
H         34.34326        48.09922        -0.30814
H         33.13329        50.28046        -0.14240
H         35.66691        62.54340         0.00755
H         36.87766        43.80789        -0.45819
H         35.59259        45.91640        -0.38312
H         37.91984        61.66110        -2.25074
H         39.42723        39.62696        -0.93933
H         38.16288        41.73518        -0.73194
H         40.38770        62.50661        -0.47593
H         41.95902        35.61216        -1.99902
H         40.68465        37.59910        -1.41677
H         42.78560        62.48156         0.06660
H         45.46496        32.69981        -3.32753
H         43.25797        33.68431        -2.73624
H         45.17887        62.46774         0.59127
H         47.56705        33.61390        -2.39252
H         48.76981        35.51628        -1.26575
H         47.51818        62.47403         1.20221
H         49.93017        37.55599        -0.70597
H         51.12855        39.59841        -0.09650
H         49.88602        62.40299         0.56567
H         52.34820        41.64295         0.49456
H         53.58192        43.75762         0.82826
H         52.14148        62.32203        -0.37552
H         54.71378        45.82588         1.70086
H         56.22282        48.25919         1.27527
H         54.37432        62.23790        -1.34927
H         57.24640        50.25304         0.82304
H         58.43356        52.36660         0.19188
H         56.67586        62.21221        -2.20078
H         59.41525        54.38264        -0.83242
H         60.06773        56.24005        -2.26641
H         59.11907        62.18021        -2.81929
H         61.38577        58.49869        -2.61785
H         61.29030        60.95558        -2.94229
