         244
 CSIRO Nanostructure Databank - Neutral Graphene Oxide Data Set
C          1.20277         1.99622        -0.55820
C          1.16805         3.39449        -0.64282
C          2.41060         1.32019        -0.48345
C          2.35501         4.15912        -0.66383
C          1.15069         6.33777        -0.54282
C          1.13317         7.73841        -0.47527
C          2.32250         5.60697        -0.73217
C          2.33175         8.49662        -0.43868
C          1.16026        10.70467        -0.10981
C          1.17523        12.12176         0.00761
C          2.31239         9.93179        -0.16349
C          2.34174        12.87046         0.07981
C          1.21060        15.10386         0.25898
C          1.26582        16.47385         0.47221
C          2.39003        14.32461         0.19219
C          2.49205        17.10307         0.77908
C          2.56244        18.54524         0.98667
C          3.63702         2.04373        -0.49739
C          3.60466         3.46952        -0.59317
C          4.87456         1.36423        -0.40407
C          4.85239         4.20013        -0.59669
C          3.58219         6.36419        -1.07339
C          3.56408         7.80936        -0.59208
C          4.83531         5.60657        -0.70703
C          4.79263         8.53101        -0.53661
C          3.59858        10.60991         0.06362
C          3.61844        12.14696         0.18962
C          4.82695         9.89360        -0.29405
C          4.85082        12.89376        -0.12752
C          3.64911        14.98392         0.35322
C          3.67599        16.33473         0.80501
C          4.86954        14.27353        -0.04420
C          4.87454        16.97096         1.45479
C          3.71808        19.20226         1.20660
C          5.03662        18.50841         1.44745
C          6.10630         2.06366        -0.42118
C          6.08514         3.48437        -0.52985
C          7.34772         1.37427        -0.29542
C          7.38459         4.22055        -0.75784
C          6.10767         6.33875        -0.70715
C          6.09507         7.82885        -0.67107
C          7.31943         5.62058        -0.14290
C          7.30650         8.49838        -0.01582
C          6.08162        10.63511        -0.53327
C          6.06825        12.16832        -0.52324
C          7.35955         9.96062        -0.37761
C          7.35645        12.84344        -0.35802
C          6.11554        14.97811        -0.32445
C          6.18213        16.38840        -0.52810
C          7.34687        14.26937        -0.24811
C          7.34688        17.10197        -0.19206
C          6.16757        19.14012         0.63044
C          7.31072        18.52709         0.11232
C          8.58111         2.07117        -0.15527
C          8.61354         3.48698        -0.28608
C          9.78770         1.39295         0.17158
C          9.80918         4.20629        -0.06617
C          8.61342         6.37808        -0.34625
C          8.57830         7.75747        -0.34497
C          9.85158         5.65116        -0.26457
C          9.78339         8.50342        -0.70615
C          8.56044        10.66968        -0.46478
C          8.55765        12.12066        -0.42906
C          9.81636         9.96987        -0.51247
C          9.81321        12.81181        -0.32921
C          8.58405        14.97682        -0.20896
C          8.58264        16.39803        -0.11296
C          9.81996        14.26683        -0.22807
C          9.80764        17.12356        -0.06027
C          8.54465        19.24465         0.02112
C          9.78820        18.57346        -0.07066
C         10.96111         2.10049         0.43967
C         10.97711         3.50606         0.33534
C         12.16746         1.34570         0.95604
C         12.15586         4.27880         0.85228
C         11.09557         6.34585        -0.22062
C         11.09409         7.73711        -0.77057
C         12.22533         5.70773         0.35802
C         12.29780         8.61608        -0.87354
C         11.03134        10.64917        -0.35575
C         11.00311        12.08056        -0.26154
C         12.30372         9.93626        -0.47192
C         12.24488        12.81395         0.05805
C         11.01590        14.99774        -0.14678
C         11.03233        16.41706        -0.07527
C         12.31885        14.27328        -0.34499
C         12.29109        17.14695        -0.07236
C         11.01888        19.26766        -0.12104
C         12.26873        18.58829        -0.12462
C         13.48370         2.09187         0.83174
C         13.48177         3.53505         0.76775
C         14.65240         1.38689         0.80515
C         14.68282         4.23385         0.73925
C         13.46731         6.37161         0.58377
C         13.52048         7.79871         1.00123
C         14.67935         5.65399         0.62343
C         14.76207         8.57302         0.70165
C         13.63857        10.64926        -0.31197
C         13.52438        12.07035         0.19424
C         14.74004         9.93774         0.46679
C         14.80499        12.81486         0.15111
C         13.49301        14.98969         0.32978
C         13.51731        16.46925         0.00244
C         14.76441        14.27033        -0.06015
C         14.75259        17.17656         0.01048
C         13.50012        19.28642        -0.12635
C         14.73715        18.60966        -0.06094
C         16.02729         1.98266         1.00360
C         16.01361         3.56329         1.12690
C         17.10021         1.39880         0.11169
C         17.09351         4.19484         0.10469
C         15.91341         6.41440         0.18073
C         15.99621         7.85016         0.61047
C         17.20726         5.66734         0.29728
C         17.23270         8.51740         0.44219
C         16.00422        10.71419         0.76979
C         16.00204        12.15130         0.28651
C         17.27050         9.95451         0.43113
C         17.24458        12.87313         0.30573
C         16.04919        15.02629        -0.03088
C         16.01105        16.49668         0.11724
C         17.29354        14.27472         0.20998
C         17.20915        17.19614         0.18903
C         15.99075        19.30223        -0.02672
C         17.18922        18.62119         0.11493
C         18.31028         2.03566        -0.08812
C         18.40057         3.46452         0.12604
C         19.51959         1.34030        -0.46041
C         19.60183         4.12829         0.11707
C         18.40605         6.33451         0.38402
C         18.45218         7.77959         0.33270
C         19.69927         5.57181         0.57016
C         19.69190         8.47460         0.16529
C         18.46546        10.62714         0.26882
C         18.49437        12.10514         0.43345
C         19.70678         9.90872         0.09961
C         19.77714        12.84671         0.19615
C         18.51437        14.99879         0.22937
C         18.52446        16.48893         0.48621
C         19.73273        14.31949         0.03049
C         19.70540        17.17437        -0.16441
C         18.50475        19.34779         0.26789
C         19.67557        18.57262        -0.29254
C         20.71682         1.99906        -0.49332
C         20.81102         3.40620        -0.20175
C         22.00342         4.11581        -0.35779
C         20.91508         6.29132         0.02180
C         20.91863         7.74133         0.00158
C         22.02911         5.53240        -0.30170
C         22.10361         8.47207        -0.20241
C         20.92452        10.60914        -0.14266
C         20.89621        12.09302        -0.49172
C         22.10159         9.86602        -0.28694
C         22.17939        12.88094        -0.36670
C         20.92440        15.00591        -0.28886
C         20.87683        16.44490        -0.50650
C         22.15057        14.24236        -0.36626
C         21.96808        17.15024        -1.06301
C         20.77216        19.24585        -0.84999
C         21.90485        18.52821        -1.24843
O         12.64961         8.24169         1.74792
O         16.26915         3.93163         2.40841
O         12.73081        12.37926         1.37925
O          5.95075        11.42351        -1.79037
O          3.71994        11.28613         1.37382
O         10.31117         7.95834        -1.99175
O         15.37593        14.67420        -1.32319
O          6.34448         7.14545        -1.93241
O          5.60559        16.31646         2.18950
O         19.40803        12.45635         1.55028
O          5.14944        17.07287        -1.10406
H          4.46629        16.44589        -1.41696
O          7.51270         4.41835        -2.19757
H          7.55836         3.53486        -2.61866
O         12.25082         0.05543         0.34254
H         12.40412         0.17970        -0.61615
O         20.53181        12.13271        -1.91638
H         21.25858        11.71368        -2.42353
O          5.42742        18.82991         2.81531
H          5.93004        18.04502         3.14103
O         12.57772        14.24145        -1.77517
H         13.01238        15.08149        -2.03464
O         13.39163        14.89220         1.76651
H         12.47899        15.12802         2.03361
O         18.75361        19.50075         1.68913
H         17.96149        19.91368         2.09188
O         16.53044         3.92822        -1.20656
H         16.04178         4.73687        -1.50226
O         11.93025         4.37818         2.31134
H         12.68670         4.87599         2.69261
O         14.25300        10.78305        -1.63269
H         14.20828         9.90111        -2.06463
O         16.01604        10.81341         2.23643
H         16.85725        11.24415         2.50165
O         15.67229         6.52166        -1.32224
H         16.42965         7.02881        -1.69149
O         16.43509         1.48185         2.30446
H         16.50949         2.31935         2.85921
O         19.90562         5.51910         2.02358
H         20.68671         4.95022         2.18884
O          7.09256         8.40736         1.42368
H          7.07645         7.44802         1.66400
O         13.40071         8.10061        -1.49765
H         13.28775         7.14679        -1.69213
O          7.08370         5.51546         1.28834
H          7.81561         4.99029         1.67928
O         18.72033        16.63672         1.93415
H         18.85610        17.60261         2.10287
O          3.63442         6.46263        -2.55416
H          4.53802         6.80057        -2.77204
H          0.25860         1.43377        -0.55342
H          0.19124         3.89067        -0.71873
H          2.43372         0.22337        -0.41416
H          0.19670         5.81222        -0.39184
H          0.16633         8.24014        -0.33493
H          0.17738        10.22611        -0.22423
H          0.20202        12.63302        -0.01106
H          0.23247        14.62561         0.11332
H          0.34319        17.07113         0.45743
H          1.62422        19.11061         0.87727
H          4.87910         0.26771        -0.31449
H          3.71617        20.29963         1.29245
H          7.33948         0.27908        -0.19974
H          6.25299        20.22296         0.83101
H          9.78479         0.29823         0.27634
H          8.53640        20.33731         0.15564
H         11.99752         1.15978         2.05285
H         11.01305        20.36794        -0.14149
H         14.59042         0.28642         0.85169
H         13.49114        20.38670        -0.15095
H         17.02793         0.31914        -0.10438
H         15.99311        20.40135        -0.09790
H         19.47072         0.26138        -0.66925
H         18.44754        20.36965        -0.20213
H         21.63850         1.45881        -0.75648
H         22.91790         3.57975        -0.64912
H         22.96728         6.02827        -0.59106
H         23.06227         7.94773        -0.31226
H         23.05564        10.37756        -0.47853
H         23.15044        12.36582        -0.40961
H         23.10446        14.79067        -0.38878
H         22.87647        16.60841        -1.36060
H         20.74303        20.33933        -0.96149
H         22.75993        19.05939        -1.68911
