         425
 CSIRO Nanostructure Databank - Neutral Graphene Oxide Data Set
C          2.25840         2.09369         3.13090
C          2.08229         3.44095         2.83099
C          3.29283         1.37152         2.53281
C          2.95244         4.10431         1.93803
C          1.65687         6.23355         2.00228
C          1.55174         7.65625         1.80086
C          2.76641         5.51917         1.62774
C          2.65328         8.41735         1.48957
C          1.50543        10.61440         1.75474
C          1.53238        12.00047         1.87282
C          2.67260         9.87435         1.49381
C          2.73070        12.73116         1.75413
C          1.60898        14.91342         2.25497
C          1.64655        16.29269         2.40635
C          2.76580        14.17362         1.91942
C          2.84821        17.00627         2.22122
C          2.90034        18.43424         2.36660
C          4.17788         2.00585         1.64966
C          4.02920         3.37719         1.37068
C          5.23279         1.17242         0.95447
C          4.99875         4.03589         0.41310
C          3.77203         6.26299         0.75730
C          3.96740         7.66887         1.35830
C          5.09546         5.54349         0.58081
C          5.02503         8.47188         0.63454
C          3.89867        10.59942         1.30414
C          3.93504        12.02086         1.45567
C          5.10519         9.91768         0.96345
C          5.17280        12.72558         1.28997
C          3.99794        14.86822         1.73829
C          4.03420        16.29064         1.88151
C          5.19782        14.15775         1.41455
C          5.25213        17.00173         1.68020
C          4.06672        19.11958         2.17623
C          5.28044        18.43245         1.82163
C          6.44694         1.97329         0.54446
C          6.34281         3.34180         0.42041
C          7.64762         1.25780         0.21334
C          7.45969         4.09834        -0.24305
C          6.22591         6.23681         0.29548
C          6.23779         7.72340         0.18740
C          7.58241         5.56744         0.22485
C          7.54360         8.43015         0.18590
C          6.31635        10.59791         0.84829
C          6.37246        12.01749         1.00882
C          7.56898         9.82593         0.66893
C          7.60867        12.73773         0.79772
C          6.41035        14.86924         1.20864
C          6.43618        16.29861         1.33182
C          7.61244        14.16956         0.87042
C          7.64559        17.01781         1.10523
C          6.47173        19.12837         1.61105
C          7.66544        18.44956         1.24549
C          8.81390         1.91019        -0.20349
C          8.79323         3.39516        -0.12896
C         10.03347         1.26396        -0.50162
C          9.99330         4.18097        -0.54326
C          8.59536         6.35679        -0.65185
C          8.70134         7.78722        -0.17044
C          9.93490         5.64641        -0.73149
C          9.96514         8.48727        -0.30870
C          8.86356        10.59048         0.50608
C          8.80796        12.06367         0.47390
C         10.01854         9.89439        -0.09062
C          9.99463        12.77718         0.16501
C          8.81008        14.89360         0.61325
C          8.82822        16.32656         0.72948
C         10.00190        14.20514         0.24115
C         10.02487        17.05396         0.47296
C          8.86466        19.15238         1.01655
C         10.04117        18.47986         0.62908
C         11.19754         1.96458        -0.92178
C         11.10963         3.42597        -1.16513
C         12.41565         1.33775        -1.17031
C         12.35001         4.22115        -1.50137
C         11.11738         6.35241        -0.92654
C         11.12899         7.79785        -0.73359
C         12.35950         5.66946        -1.22352
C         12.35970         8.50368        -0.85114
C         11.17879        10.63031        -0.37533
C         11.19004        12.07446        -0.20752
C         12.37773         9.92878        -0.72810
C         12.36042        12.80725        -0.45588
C         11.19920        14.93130        -0.04739
C         11.21280        16.37717         0.05904
C         12.36654        14.21841        -0.39404
C         12.38195        17.12213        -0.20251
C         11.24906        19.19291         0.37567
C         12.39784        18.53304        -0.03076
C         13.61599         2.04618        -1.53627
C         13.62036         3.49330        -1.62980
C         14.82181         1.35336        -1.61676
C         14.80249         4.22859        -1.73558
C         13.57736         6.36050        -1.30286
C         13.57984         7.80166        -1.11357
C         14.80835         5.65412        -1.56043
C         14.78731         8.51414        -1.14731
C         13.60954        10.62964        -0.80584
C         13.60342        12.12978        -0.97659
C         14.80480         9.91455        -0.91632
C         14.86019        12.83834        -0.52247
C         13.61729        14.94532        -0.72452
C         13.62283        16.44411        -0.63341
C         14.90222        14.21891        -0.54690
C         14.91093        17.13352        -0.38964
C         13.63729        19.32395        -0.39714
C         14.92333        18.53760        -0.24894
C         16.04340         2.00214        -2.07555
C         16.03677         3.53478        -2.16291
C         17.33660         1.32222        -1.99199
C         17.37268         4.28512        -2.22602
C         16.05654         6.35465        -1.58646
C         16.04067         7.82592        -1.50810
C         17.29263         5.69253        -1.66811
C         17.37069         8.56646        -1.34579
C         16.08231        10.56948        -0.54943
C         16.08304        12.08353        -0.25680
C         17.36111         9.93889        -0.80331
C         17.36662        12.78358        -0.29995
C         16.12676        14.94092        -0.34001
C         16.11894        16.38998        -0.27010
C         17.35645        14.21672        -0.26372
C         17.32726        17.08972        -0.03254
C         16.13027        19.21641        -0.07673
C         17.36241        18.51375         0.00267
C         18.54875         2.02331        -1.87491
C         18.56555         3.46426        -1.75915
C         19.77842         1.31918        -1.77289
C         19.75010         4.11277        -1.41794
C         18.50993         6.36803        -1.33803
C         18.56993         7.75105        -1.12377
C         19.69644         5.54023        -1.02255
C         19.79485         8.43583        -0.76632
C         18.56224        10.61349        -0.53759
C         18.56823        12.05255        -0.31691
C         19.80215         9.89108        -0.61569
C         19.82368        12.75498        -0.26888
C         18.59466        14.89501        -0.08975
C         18.56505        16.33609         0.18732
C         19.82953        14.20300        -0.12670
C         19.88984        17.11259         0.14897
C         18.60640        19.22214        -0.00854
C         19.84636        18.56879        -0.08346
C         21.00223         1.99013        -1.56165
C         20.98936         3.40744        -1.31877
C         22.23740         1.29400        -1.57671
C         22.23088         4.09889        -1.11218
C         20.99329         6.25035        -0.68463
C         20.97940         7.72460        -0.66522
C         22.25605         5.50582        -0.89055
C         22.28005         8.40298        -0.34597
C         21.02372        10.59786        -0.53720
C         21.01716        12.02686        -0.39962
C         22.28037         9.89499        -0.59318
C         22.30892        12.72461        -0.36172
C         21.05145        14.94587        -0.19474
C         21.09433        16.35665        -0.21254
C         22.33193        14.23455        -0.31741
C         22.28260        17.06671        -0.52001
C         21.06419        19.22417        -0.35360
C         22.27863        18.50700        -0.54817
C         23.46832         1.97324        -1.42769
C         23.46817         3.39509        -1.22556
C         24.70572         1.29329        -1.48945
C         24.72131         4.07763        -1.15435
C         23.47703         6.20053        -0.97119
C         23.42562         7.68291        -1.03059
C         24.70606         5.51998        -1.13107
C         24.70949         8.42932        -1.16654
C         23.49138        10.57857        -0.76136
C         23.51905        12.01673        -0.82420
C         24.74287         9.88665        -0.93591
C         24.65706        12.72193        -1.17350
C         23.48987        14.94603        -0.87190
C         23.47519        16.34849        -0.91451
C         24.49357        14.15619        -1.67366
C         24.64549        17.07625        -1.27163
C         23.48843        19.18579        -0.82540
C         24.67140        18.48416        -1.15714
C         25.95600         1.93008        -1.26902
C         25.95314         3.36143        -1.11803
C         27.10907         1.06473        -1.33413
C         27.14826         4.21994        -0.70820
C         25.93746         6.27397        -1.26197
C         25.94167         7.65257        -1.20741
C         27.20483         5.57319        -1.35038
C         27.22958         8.34207        -1.14513
C         25.91939        10.58488        -1.11630
C         25.91005        12.01898        -1.30392
C         27.21234         9.86468        -1.14981
C         27.08361        12.68839        -1.62324
C         25.81186        14.89848        -1.95020
C         25.84937        16.43752        -1.92718
C         27.09275        14.13098        -1.92318
C         27.15725        17.03247        -1.39520
C         25.92103        19.16232        -1.38440
C         27.14952        18.49955        -1.38852
C         28.41260         1.35682        -0.86498
C         28.48297         3.57959        -0.75153
C         29.64020         0.85858        -1.24513
C         29.59901         3.99434        -1.38238
C         28.38303         6.19027        -1.74531
C         28.37377         7.64837        -1.76775
C         29.66627         5.35362        -2.08275
C         29.41692         8.45928        -2.17855
C         28.40344        10.55186        -1.63351
C         28.32755        11.96954        -1.91560
C         29.58052         9.85718        -1.89133
C         29.66577        12.71213        -2.02450
C         28.37213        14.83249        -1.66798
C         28.30200        16.22182        -1.27685
C         29.58995        14.14928        -1.68195
C         29.55733        16.76609        -0.84283
C         28.33916        19.32516        -1.58421
C         29.57173        18.98093        -1.06783
C         30.85909         1.68276        -0.95189
C         30.84731         3.19062        -1.14536
C         31.88158         1.15153        -0.03214
C         31.97667         3.96380        -0.57244
C         30.97501         6.05887        -1.66543
C         31.22841         7.34193        -2.03620
C         32.20762         5.30836        -1.20859
C         32.00932         8.30456        -1.15626
C         30.89078        10.52168        -1.84121
C         30.91791        11.94229        -1.80181
C         32.09418         9.78952        -1.54450
C         32.12493        12.65751        -1.54486
C         30.84519        14.81408        -1.45467
C         30.78708        16.21945        -1.13321
C         32.05790        14.09686        -1.44574
C         32.02332        17.07598        -1.34292
C         30.90522        19.42282        -1.28502
C         32.01775        18.57695        -1.00691
C         32.89237         1.93909         0.47725
C         32.98318         3.34718         0.10119
C         33.89960         1.41055         1.36840
C         34.28955         4.05756         0.36427
C         33.22437         6.18266        -0.50989
C         33.28759         7.61566        -0.75641
C         34.23415         5.55941         0.19255
C         34.46121         8.30615        -0.61067
C         33.29348        10.49842        -1.29725
C         33.35384        11.93211        -1.33698
C         34.55435         9.73248        -1.03946
C         34.59702        12.63826        -1.03160
C         33.31540        14.86780        -1.31235
C         33.22069        16.29509        -0.83091
C         34.61142        14.13100        -1.11012
C         34.46687        17.00741        -0.45522
C         33.25775        19.18597        -0.78443
C         34.46861        18.48931        -0.52166
C         34.88044         2.20100         1.93691
C         34.83303         3.70401         1.74598
C         35.88501         1.65290         2.78352
C         36.13773         4.42021         2.02824
C         35.38618         6.29616         0.61049
C         35.63303         7.58200        -0.06732
C         36.34325         5.73716         1.48100
C         36.90992         8.32863         0.27530
C         35.82793        10.49344        -0.72615
C         35.76041        11.97549        -0.63220
C         37.00794         9.79199        -0.08157
C         36.94429        12.69927        -0.17766
C         35.78980        14.89185        -0.60636
C         35.76253        16.27609        -0.45536
C         37.09059        14.11835        -0.69345
C         36.93019        17.04951        -0.17966
C         35.64564        19.16785        -0.26528
C         36.86850        18.46553         0.00512
C         36.93567         2.42757         3.27268
C         37.07762         3.81865         2.87369
C         37.93943         1.85283         4.12352
C         38.22261         4.55150         3.32181
C         37.49244         6.51885         1.87838
C         37.74495         7.78307         1.36886
C         38.31208         6.03631         3.06078
C         38.82245         8.60724         1.92850
C         38.05734        10.61002         0.59247
C         37.99041        12.09193         0.48966
C         38.94421         9.97908         1.60215
C         39.15300        12.82518         0.98045
C         38.30357        14.88248        -0.15176
C         38.22830        16.38664        -0.00725
C         39.31157        14.20335         0.68927
C         39.28815        17.10253         0.72298
C         38.00168        19.17825         0.43331
C         39.19536        18.51637         0.84539
C         39.01740         2.58624         4.54096
C         39.17206         3.95581         4.14269
C         40.32805         4.72728         4.58450
C         39.76248         6.50226         2.93942
C         39.78036         8.01259         2.79052
C         40.60782         5.93778         4.06222
C         40.77744         8.80552         3.36486
C         39.98082        10.76074         2.15842
C         40.13346        12.16450         1.76912
C         40.86243        10.16469         3.07939
C         41.27264        12.88513         2.17782
C         40.40190        14.94155         1.21589
C         40.43166        16.40801         1.16564
C         41.40006        14.24010         1.92245
C         41.51022        17.15819         1.68564
C         40.29423        19.23337         1.37886
C         41.44104        18.55193         1.77140
O         28.92199        12.33923        -3.21878
O         19.28659        16.70443         1.41457
O         29.52237        17.94130        -0.11088
O         35.56465         9.98210        -2.07311
O         33.51675        16.47454         0.57653
O         31.35047         2.30575        -2.21440
O          9.74036         3.85244         0.88411
O         11.34846         3.82858        -2.53877
O         30.39841         7.91398        -3.00894
O         28.51528         2.43047         0.06038
O         15.97784        11.10301         0.83118
O         23.79535         8.17502        -2.34528
O          5.22986         8.21131        -0.78656
O         26.40591        14.43287        -3.21812
O         16.73100         8.44284        -2.65897
O         38.26931        10.05148        -0.77399
O         36.83270         7.51123        -0.92891
O         38.83983        15.73445        -1.21466
O         34.21247        14.65750        -2.44501
O         13.53353        15.76199        -1.94956
O         22.61444        13.41918         0.91114
O         27.47078         9.09261         0.09408
O          8.47938        10.02032         1.81510
O         15.82740         2.74645        -3.36447
O         20.13077         5.68723         0.37687
O         37.76116         6.69755         4.24204
H         36.86643         6.33040         4.40016
O         17.65918         4.50430        -3.64371
H         17.19434         3.78498        -4.13603
O          8.09644         5.62700         1.57146
H          7.57528         5.01948         2.13593
O         25.76425        16.88139        -3.31632
H         26.21982        16.19168        -3.85537
O         23.84067        14.00371        -2.97768
H         24.56572        13.88898        -3.63653
O         31.18926         8.32459         0.07225
H         31.65265         8.87180         0.74106
O         32.19798        17.08249        -2.79392
H         31.41812        17.51661        -3.19888
O          8.11781         6.45726        -2.01374
H          7.80151         5.55855        -2.29068
O          4.46889         3.86543        -0.96004
H          3.83053         4.60687        -1.11123
O          5.61143         0.04883         1.75698
H          6.07675         0.38078         2.55157
O         33.86559         4.22594         2.71049
H         34.10008         3.86741         3.59198
O          3.17977         6.35310        -0.56653
H          2.35782         6.88461        -0.49348
O         22.52784         8.20820         1.08442
H         21.74050         8.52185         1.57745
O         29.66025         5.15209        -3.51013
H         29.86262         6.02015        -3.92472
O         37.29606        13.93397        -2.12201
H         37.81766        14.71027        -2.43546
O         13.57801        12.30857        -2.43928
H         13.46794        13.26764        -2.62274
O         35.23549         3.56209        -0.61318
H         34.91350         3.83555        -1.49984
O          7.12372         4.07036        -1.66868
H          6.13204         4.02040        -1.73234
O         40.27953         5.95536         1.69803
H         41.17364         6.32436         1.54517
O         26.90125         4.48611         0.71918
H         27.17708         3.67346         1.19957
O         32.87362         4.93573        -2.47749
H         32.34051         4.21458        -2.88435
O         13.70016        20.54585         0.34236
H         13.82001        20.32706         1.28890
O          4.47425         7.45445         2.70587
H          4.50749         8.32132         3.16215
H          1.57235         1.59474         3.82944
H          1.25629         3.98922         3.30359
H          3.42534         0.30158         2.74621
H          0.81556         5.74032         2.51005
H          0.57993         8.12712         2.00753
H          0.54520        10.09663         1.88315
H          0.58740        12.51952         2.07982
H          0.65109        14.39821         2.40608
H          0.72975        16.83924         2.67032
H          1.97732        18.96939         2.63357
H          4.77095         0.74794         0.01999
H          4.09521        20.21332         2.28759
H          7.62610         0.16014         0.27759
H          6.48979        20.22311         1.71910
H         10.08791         0.16792        -0.41775
H          8.88048        20.24631         1.13113
H         12.49057         0.24791        -1.03848
H         11.26500        20.28703         0.48641
H         14.86001         0.28906        -1.34184
H         13.54038        19.61770        -1.48035
H         17.34515         0.22462        -1.92558
H         16.12552        20.31484        -0.02552
H         19.77757         0.22662        -1.89835
H         18.57621        20.31894        -0.09242
H         22.23863         0.20703        -1.74719
H         21.07263        20.31896        -0.46355
H         24.69565         0.20505        -1.65419
H         23.50365        20.28577        -0.80472
H         26.95654         0.09339        -1.82962
H         25.91381        20.26186        -1.42459
H         29.72576         0.02468        -1.95678
H         28.22336        20.24184        -2.18150
H         31.77819         0.11181         0.31435
H         31.10117        20.47368        -1.55256
H         33.89072         0.32957         1.57952
H         33.29190        20.28600        -0.73633
H         35.85551         0.57712         3.01593
H         35.65379        20.26758        -0.25189
H         37.82803         0.80274         4.43083
H         37.93924        20.27189         0.53109
H         39.78148         2.13295         5.18910
H         40.99267         4.27688         5.33773
H         41.53008         6.45479         4.36612
H         41.51141         8.36756         4.05423
H         41.64978        10.75278         3.56722
H         42.07568        12.38433         2.73282
H         42.28408        14.76621         2.30462
H         42.42719        16.65708         2.02226
H         40.23732        20.32755         1.46474
H         42.29960        19.11067         2.16929
