         576
 CSIRO Nanostructure Databank - Neutral Graphene Oxide Data Set
C          6.96365        18.86027        -2.31000
C          6.86246        20.25417        -2.31523
C          5.90020        20.95955        -3.15175
C          6.46649        23.15726        -2.15520
C          5.71382        22.30125        -3.09349
C          6.54248        24.61591        -2.32379
C          8.71410        14.74143        -0.06744
C          8.58153        16.18119        -0.19480
C          7.87029        16.78199        -1.24404
C          8.63467        19.00500        -0.52857
C          7.82130        18.19991        -1.38716
C          8.65389        20.41596        -0.64097
C          7.72804        21.02408        -1.47828
C          8.77266        23.29336        -1.00106
C          7.53856        22.48001        -1.33983
C          8.38941        24.71756        -0.66149
C          7.39289        25.38749        -1.53562
C          8.44392        27.56212        -1.03381
C          7.33863        26.80338        -1.49640
C          8.50433        28.97942        -1.18910
C         10.94314        10.58561        -0.33128
C         10.86767        11.81339         0.31375
C          9.54830        12.51495         0.48369
C         10.83548        14.53191         1.31828
C          9.67596        14.01463         0.60999
C         10.87490        15.85404         1.73150
C          9.19015        17.03912         0.76425
C         10.24949        19.20586         1.34171
C          9.31531        18.40784         0.57025
C         10.59560        20.47264         0.98776
C          9.42285        21.22614         0.38659
C         10.70704        23.33711         0.61261
C          9.72004        22.64774        -0.01089
C         10.76615        24.86619         0.57757
C          9.54268        25.53092        -0.06535
C         10.90483        27.49226        -0.99048
C          9.60539        26.89930        -0.53706
C         10.94209        28.99021        -0.74446
C          9.69442        29.70360        -0.94143
C         10.85930        31.87732        -0.65826
C          9.67601        31.11306        -0.86994
C         10.80500        33.23579        -0.46075
C         13.39686         6.31388        -1.05928
C         13.27997         7.57171        -0.24175
C         12.17991         8.46288        -0.74472
C         13.22916        10.23656         0.53222
C         12.12186         9.76573        -0.26238
C         12.97532        11.35102         1.33147
C         11.95971        12.28306         1.09540
C         13.36700        14.39835         1.73063
C         11.98441        13.63799         1.79331
C         13.36620        15.90550         1.69907
C         12.08478        16.62775         1.85130
C         13.24929        18.89001         1.83431
C         12.08959        18.00491         2.01050
C         13.14120        20.32737         1.58458
C         11.78313        21.13389         1.68769
C         13.17828        23.32306         1.02724
C         11.86278        22.63768         1.27784
C         13.23556        24.70460         0.41477
C         12.08896        25.37645         0.05288
C         13.41701        27.52092        -0.30197
C         12.15464        26.72344        -0.55713
C         13.35622        28.99800        -0.25919
C         12.13604        29.67740        -0.52746
C         13.33653        31.89996        -0.13342
C         12.19037        31.17155        -0.80227
C         13.27891        33.27353         0.00604
C         11.99185        34.06186        -0.06150
C         13.29322        36.09592        -0.69019
C         12.17225        35.35004        -0.84583
C         13.36813        37.51038        -1.05302
C         15.84975         6.36545        -1.02901
C         14.57536         5.74005        -1.35530
C         15.86330         7.53747        -0.06443
C         14.58077         8.32052        -0.03882
C         15.80117        10.37205         0.68243
C         14.54559         9.60261         0.46995
C         15.80370        11.77865         1.16419
C         14.82413        12.33738         1.94502
C         15.90000        14.57496         2.13585
C         14.64854        13.76501         2.38320
C         15.82824        16.02252         2.48016
C         14.52563        16.74102         2.18903
C         15.75136        19.03494         2.17927
C         14.48653        18.22008         1.95121
C         15.60903        20.37135         1.46220
C         14.38034        21.02627         1.34710
C         15.64408        23.27385         1.20653
C         14.40974        22.46416         0.77284
C         15.70159        24.72719         0.87001
C         14.51457        25.40428         0.45398
C         15.75401        27.54414         0.46839
C         14.55688        26.80618         0.28675
C         15.75001        28.97442         0.34780
C         14.52784        29.72234         0.10417
C         15.74361        31.86455         0.56051
C         14.51595        31.14122         0.17877
C         15.76948        33.37145         0.52684
C         14.46626        34.08406         0.37974
C         15.78228        36.15191        -0.30278
C         14.44265        35.60452         0.16658
C         15.85165        37.58361        -0.81596
C         14.49937        38.23454        -0.93062
C         18.29071         6.59773        -1.50521
C         16.99204         5.85334        -1.53704
C         18.24345         7.88184        -0.71130
C         17.08348         8.42517        -0.22399
C         18.23557        10.65582         0.06094
C         16.99625         9.79955         0.25804
C         18.21765        11.92372         0.87075
C         17.04676        12.55450         1.18601
C         18.32477        14.65115         1.74186
C         17.05429        13.93313         1.73156
C         18.36644        15.98240         2.41701
C         17.10698        16.85266         2.60143
C         18.14816        18.85105         1.35178
C         17.04255        18.21834         1.86480
C         18.14299        20.34675         1.37265
C         16.86547        21.05979         0.99924
C         18.21517        23.24711         1.19327
C         16.92844        22.52779         1.38231
C         18.17154        24.72631         1.29907
C         16.91166        25.43301         0.96496
C         18.21140        27.55398         0.65692
C         16.96525        26.84249         0.74134
C         18.19338        28.93033         0.35575
C         16.98629        29.64430         0.34747
C         18.26677        31.82738         0.11490
C         17.03643        31.10940         0.51084
C         18.18932        33.18505        -0.25483
C         17.11527        34.09316         0.36874
C         18.18817        36.32878        -0.37955
C         16.96917        35.49734        -0.22186
C         18.15619        37.73610         0.05001
C         16.94084        38.35925        -0.07609
C         20.71606         6.34483        -0.81335
C         19.51580         5.77153        -1.22487
C         20.74693         7.71966        -0.36091
C         19.56444         8.60991        -0.67121
C         20.70692        10.37943         0.62012
C         19.51770         9.85199         0.16284
C         20.72782        11.85065         0.83046
C         19.49606        12.49765         1.40337
C         20.75447        14.70125         1.17247
C         19.50334        14.00413         1.38750
C         20.74752        16.08277         0.85463
C         19.49716        16.82619         0.50919
C         20.60697        18.93241         0.84331
C         19.43862        18.23630         0.99589
C         20.65102        20.42933         0.70697
C         19.41438        21.11532         1.22287
C         20.67254        23.28169         0.59048
C         19.38812        22.58651         1.01618
C         20.74013        24.73526         0.95386
C         19.48806        25.46468         1.16482
C         20.69949        27.55191         0.71394
C         19.47524        26.88548         0.81355
C         20.67588        29.01880         0.54806
C         19.45494        29.59575        -0.12591
C         20.65584        31.78431        -0.37188
C         19.45482        31.10342        -0.09054
C         20.61686        33.13784        -0.75129
C         19.33737        33.68774        -0.89634
C         20.67930        36.52572        -0.92508
C         19.31794        35.91462        -0.99755
C         20.65260        37.73972        -0.00410
C         19.44716        38.33387         0.35044
C         23.15832         6.13168        -0.46508
C         21.93573         5.59011        -0.88023
C         23.12588         7.41186         0.28712
C         21.90974         8.26677         0.20131
C         23.18657        10.26515         1.10241
C         21.93360         9.62907         0.61860
C         23.24669        11.77690         1.24163
C         22.00937        12.56227         0.98590
C         23.21504        14.72734         1.09569
C         22.00840        14.02714         1.22162
C         23.18827        16.12994         0.89070
C         21.94187        16.79340         0.76433
C         23.13455        19.00264         0.67680
C         21.86722        18.24055         0.35428
C         23.16172        20.34844         0.86690
C         21.91917        21.09430         1.26944
C         23.17647        23.25621         0.84573
C         21.95800        22.56198         0.90831
C         23.19447        24.70283         0.73935
C         21.94821        25.42552         0.82710
C         23.19300        27.56987         0.65606
C         21.94779        26.86941         0.76450
C         23.22852        29.01600         0.42404
C         21.95257        29.76050         0.39675
C         23.14048        31.86907        -0.15425
C         21.93811        31.00996        -0.46559
C         23.09409        33.33466        -0.46867
C         21.84572        33.99977        -1.10037
C         23.08823        36.17883        -0.21407
C         21.78987        35.48664        -0.55515
C         23.12391        37.64337         0.07120
C         21.92228        38.32894         0.28645
C         25.65377         6.09099        -0.39958
C         24.38973         5.47103        -0.65046
C         25.69028         7.42989         0.10173
C         24.46954         8.05631         0.62159
C         25.79153        10.26414         0.87446
C         24.49880         9.50169         1.05990
C         25.81062        11.77697         0.94399
C         24.54641        12.53358         1.27774
C         25.64858        14.72067         0.47084
C         24.57651        14.07241         1.30649
C         25.61613        16.10583         0.33887
C         24.40730        16.84998         0.61640
C         25.52443        18.95664         0.08093
C         24.37741        18.25351         0.51801
C         25.59598        20.43654         0.22232
C         24.48514        21.04748         1.10472
C         25.63439        23.27222         0.82037
C         24.43328        22.55876         0.93915
C         25.64465        24.66351         0.57152
C         24.42415        25.41847         0.66748
C         25.59677        27.77123         1.03897
C         24.40572        26.85541         0.73919
C         25.63752        28.83538        -0.06932
C         24.39118        29.69531         0.09406
C         25.61889        31.83998        -0.20613
C         24.42996        31.12717        -0.11907
C         25.64398        33.27719        -0.34806
C         24.40945        34.02295        -0.66586
C         25.68388        36.23178        -0.23548
C         24.41180        35.53782        -0.52269
C         25.64047        37.61519         0.20220
C         24.37744        38.24108         0.34404
C         28.13697         6.09353        -0.56078
C         26.87321         5.46088        -0.75530
C         28.15619         7.49365        -0.18444
C         26.89443         8.18549         0.01776
C         28.08527        10.31217        -0.37399
C         26.89682         9.57346         0.18690
C         28.13115        11.79093        -0.09191
C         26.83875        12.47960         0.10331
C         28.07148        14.68037        -0.32385
C         26.78708        13.97313        -0.08356
C         28.04473        16.14127        -0.36274
C         26.74009        16.79693        -0.23052
C         28.30318        19.24734        -0.35993
C         26.53417        18.16094        -0.50202
C         28.20883        20.49736         0.16612
C         26.91070        21.21362         0.19163
C         28.20958        23.31990         0.71617
C         26.94563        22.52279         0.97212
C         28.19887        24.66737         0.48218
C         26.89453        25.24234         0.02083
C         28.17589        27.66588         0.76180
C         26.93767        27.12700         1.37543
C         28.19593        28.96563         0.31543
C         26.93560        29.62449        -0.10436
C         28.16101        31.84236         0.06292
C         26.91423        31.11551        -0.22837
C         28.06010        33.30418         0.22432
C         26.82191        33.99914        -0.19610
C         28.15255        36.06321        -0.35402
C         26.85783        35.44079        -0.28629
C         28.09777        38.10736         0.23610
C         26.79715        38.35606         0.66623
C         30.61392         6.01415        -0.38806
C         29.35081         5.45770        -0.86179
C         30.61248         7.44845         0.15833
C         29.35761         8.18724         0.00557
C         30.57938        10.32960        -0.19291
C         29.39467         9.62110        -0.08550
C         30.54183        11.75024        -0.72398
C         29.27295        12.49928        -0.34600
C         30.56023        14.64426        -0.31963
C         29.25420        13.95004        -0.38765
C         30.53511        16.14001        -0.29739
C         29.24298        16.85896        -0.41741
C         30.59607        19.03451        -0.33462
C         29.34913        18.28343         0.09946
C         30.73940        20.41502         0.23315
C         29.47282        21.11245         0.67374
C         30.73454        23.36382         0.38080
C         29.49753        22.60592         0.82187
C         30.65732        24.82978         0.21128
C         29.43802        25.44623         0.47582
C         30.74175        27.63957         0.65894
C         29.43600        26.88169         0.82974
C         30.65251        29.09961         0.44798
C         29.44255        29.72102         0.23250
C         30.62348        31.92294         0.14018
C         29.36759        31.18262         0.15081
C         30.61847        33.36258         0.23690
C         29.34227        34.07415         0.37109
C         30.56993        36.25896         0.28152
C         29.35506        35.51409         0.05990
C         30.54406        37.68050         0.58759
C         29.37670        38.45582         0.76558
C         33.05325         6.21617        -0.79305
C         31.91307         5.49235        -0.86357
C         33.13405         7.57060        -0.25851
C         31.91337         8.22325         0.38787
C         33.04235        10.39814        -0.08298
C         31.85687         9.69142        -0.00791
C         33.05839        11.82103        -0.37336
C         31.83322        12.51786        -0.51811
C         33.07185        14.62053        -0.72744
C         31.84064        13.92365        -0.57948
C         33.10017        16.10959        -0.78117
C         31.82977        16.86960        -0.56950
C         33.02383        19.09870        -1.07313
C         31.75991        18.32616        -0.89850
C         33.04819        20.53326        -0.70634
C         31.95352        21.16771        -0.16311
C         32.99155        23.39883        -0.90760
C         31.83250        22.62928        -0.30995
C         32.98676        24.93346        -0.92281
C         31.87504        25.56532        -0.07743
C         33.13127        27.70075        -0.16045
C         31.92212        26.93318         0.11389
C         33.13231        29.09205        -0.01765
C         31.94526        29.86496         0.51323
C         33.08130        32.03817        -0.25897
C         31.82210        31.25162        -0.02738
C         33.06098        33.28361         0.66988
C         31.79411        34.08422         0.36898
C         33.03382        36.18417         0.71239
C         31.77571        35.51449         0.47205
C         32.98887        37.60272         0.95174
C         31.80685        38.28822         0.94727
C         34.28988         8.28013        -0.29899
C         35.57642        10.46577        -0.06712
C         34.33649         9.68521         0.27180
C         35.56467        11.83003        -0.25378
C         34.28856        12.53241        -0.45143
C         35.62170        14.56103        -1.12118
C         34.29425        13.91885        -0.71747
C         35.62550        16.09430        -1.20662
C         34.31812        16.83361        -1.29704
C         35.52672        19.08878        -0.91405
C         34.30708        18.34557        -1.24926
C         35.53012        20.49163        -0.91835
C         34.27803        21.26268        -0.98649
C         35.49947        23.41773        -1.24127
C         34.25630        22.64966        -1.04434
C         35.50425        24.90030        -1.04580
C         34.35388        25.57662        -0.74226
C         35.56024        27.72845        -0.51661
C         34.35699        27.01764        -0.49718
C         35.57890        29.12973        -0.27175
C         34.34894        29.83208        -0.12774
C         35.56463        31.95767         0.08379
C         34.35220        31.25023        -0.05038
C         35.52556        33.40132         0.25487
C         34.34157        34.08001         0.47992
C         34.25209        35.49125         0.67962
C         36.77477        12.60249        -0.14736
C         37.94978        14.76787        -0.15009
C         36.80589        13.98437        -0.37646
C         37.95966        16.19623        -0.27959
C         36.79345        16.86365        -0.71648
C         37.95011        19.09588        -0.09849
C         36.67600        18.30596        -0.45533
C         37.96941        20.53940        -0.41015
C         36.76301        21.20107        -0.75024
C         37.98821        23.40115        -0.59324
C         36.78932        22.64257        -1.07156
C         37.97474        24.88910        -0.54477
C         36.84379        25.60314        -1.29821
C         38.06945        27.73972        -0.44242
C         36.82992        27.15995        -1.12121
C         38.04357        29.07784        -0.11738
C         36.81721        29.84793        -0.14948
C         36.78923        31.23074         0.06809
C         39.15568        16.94248         0.00773
C         40.41447        19.09515         0.04857
C         39.21545        18.33995        -0.04308
C         40.41063        20.50103        -0.05024
C         39.21069        21.21058        -0.34821
C         40.47112        23.41646        -0.15952
C         39.30330        22.66625        -0.75154
C         40.45034        24.79351        -0.09811
C         39.27809        25.58759        -0.37308
C         39.27113        26.96342        -0.29309
C         41.62525        21.26748         0.15647
C         41.64032        22.63595         0.15786
O         32.99443        32.82358         1.98509
O         26.01749        21.20999        -0.94926
O         15.02364        33.81478         1.71940
O         30.49557        23.03462         1.79205
O         18.89135        20.78122         2.54987
O          6.29638        22.83189        -0.69624
O         30.63144        15.39257         0.96869
O         18.65247        16.40814        -0.28098
O         26.88178        26.05709        -0.90620
O         16.43224        31.45316         1.81096
O         13.59252        15.10116         0.48064
O          9.64679        16.49153         1.96164
O         31.88899        22.93179        -1.76129
O         18.84707        25.20989         2.49953
O         13.14876        26.87334        -1.62621
O         37.01905        18.68576         0.94072
O         36.28318        22.94448        -2.41496
O         30.55138         6.31242         1.07311
O         22.91903        32.85805         0.89623
O         19.23996        34.76115        -1.77522
O         21.37362        12.41466        -0.36630
O         13.80108        11.54456         2.44506
O         22.23750        35.52098         0.81052
O         30.72508        18.84286        -1.78604
O         16.14231        22.92771         2.53355
O         28.18122        37.32963        -0.94304
O         33.59317        18.89511        -2.41025
O         26.32263        13.03020        -1.15641
O         10.89721        18.57153         2.40150
O         27.00028        26.34418         2.32689
O         30.29227        27.18452         1.97962
O         12.57184        23.35743         2.34271
O         26.33637        11.00433         2.04710
O         14.89737        16.35121         3.55455
O         24.45552        34.86923        -1.83969
O         37.67311        24.08975         0.65777
O         28.54254        33.73028         1.56462
O         27.08432        30.24884        -1.43428
O         23.74077         7.24181         1.59754
O         35.00059        16.43959        -2.50614
O         23.79032         9.66231         2.30328
O         30.32494        20.43656         1.64138
O         27.43282        18.81188        -1.35111
O          8.34337        25.14674         0.70915
O         32.77808        16.70344         0.53956
O         17.20758        17.23394         3.99738
O         21.20888        29.81259         1.65448
O         23.88381        12.11568         2.50788
O          8.99421        12.01220         1.72298
H          8.17345        12.51457         1.90768
O         32.11171         8.19768         1.83311
H         31.81167         7.30793         2.13757
O         16.30304        37.52650        -2.21435
H         17.13466        37.00494        -2.23540
O         25.28013        28.48040         2.26660
H         25.44658        27.86549         3.01485
O         15.76720        19.38284         3.59044
H         16.02281        18.57074         4.09731
O         32.24268        30.14653         1.92971
H         32.52289        31.11285         2.02957
O         30.43500        11.56391        -2.19411
H         30.46261        12.45130        -2.61274
O         14.42694        13.75514         3.80766
H         13.53915        13.35424         3.96539
O         27.92071        10.23431        -1.83722
H         28.73091        10.64382        -2.23480
O         35.82955        14.11594        -2.49913
H         35.94390        13.14230        -2.48354
O         32.64552        25.31898        -2.28930
H         32.02977        24.63148        -2.63535
O          9.49551        23.36649        -2.27135
H         10.38863        23.73971        -2.11448
O         10.82959        27.36077        -2.45883
H         11.76645        27.34294        -2.77387
O         21.79225        18.25413        -1.12448
H         21.12206        17.59046        -1.39938
O         16.85372        21.05701        -0.48124
H         16.89718        20.12455        -0.78477
O         34.41804         9.56950         1.72626
H         33.61372         9.07250         2.03006
O         27.07205        22.13840         2.38157
H         27.31967        22.93478         2.89977
O         19.54358        29.22251        -1.54014
H         20.34159        29.66802        -1.91915
O         24.95350        14.42615         2.67437
H         24.48909        13.79478         3.27198
O         18.17435        11.10946        -1.36404
H         18.75736        11.89676        -1.44102
O         11.46350        21.14507         3.09739
H         12.08588        21.77570         3.52703
O         11.72346        34.49538         1.31404
H         12.43678        35.12919         1.57270
O         15.97547         6.95360         1.27986
H         15.06417         6.72716         1.57322
O         22.05387        30.56196        -1.85748
H         22.85412        29.99472        -1.92818
O         39.52203        22.65402        -2.20345
H         40.37823        22.20673        -2.37199
O         11.75644        13.39328         3.21075
H         10.92888        12.87033         3.29064
O         14.18386        36.19554         1.47393
H         14.73966        35.69140         2.11610
O         33.08807        32.54247        -1.62103
H         33.24897        31.78892        -2.22668
O         12.51665        31.25229        -2.23595
H         11.82558        30.75290        -2.72184
O         12.87864         7.12615         1.12195
H         11.96290         6.77924         1.05994
O         21.06681        37.00008        -2.24179
H         20.38265        37.62183        -2.56487
O         19.57029        12.12244         2.82151
H         18.77588        12.47602         3.27616
O         21.98355        34.05761        -2.51908
H         21.93817        33.15038        -2.88430
O         24.78640        20.74674         2.49835
H         25.64751        21.18694         2.72951
O         14.44721        22.34592        -0.67188
H         15.29075        21.88073        -0.90890
O         18.52208         6.96259        -2.91880
H         19.15493         7.73240        -2.90910
O         37.18218        25.38305        -2.69403
H         36.96825        24.44082        -2.92544
O         36.82877        27.78459        -2.43654
H         36.97229        27.06406        -3.09735
O         19.82802         9.10570        -2.05954
H         19.19582         9.86617        -2.17781
O         21.86040        20.99556         2.71774
H         22.78489        21.04172         3.05713
O         19.35398        16.30962         3.07558
H         18.16963        17.35961         4.18446
O         29.24073        18.15609         1.53009
H         29.87093        17.46754         1.83558
O         20.63333        20.64993        -0.74014
H         21.20120        19.95242        -1.16392
O          8.46955        21.39557         1.49600
H          8.98412        21.63348         2.29789
O         20.59224        23.33085        -0.89392
H         20.62704        22.38523        -1.19523
O         10.72264        25.31381         1.95950
H          9.82583        25.10355         2.30150
O         25.48837        28.17915        -1.34325
H         26.01959        28.68213        -2.00072
O         17.62727        34.30418         1.70914
H         17.40088        33.50910         2.24280
H          6.30777        18.26250        -2.96044
H          5.30997        20.36151        -3.86241
H          5.00721        22.78912        -3.78186
H          5.83216        25.11177        -3.00270
H          8.00682        14.15573        -0.67978
H          7.33013        16.15075        -1.96540
H          6.52147        27.32407        -2.01666
H          7.58929        29.52561        -1.45973
H         10.05514        10.18935        -0.84527
H          8.85132        12.25119        -0.36128
H          8.70876        31.63648        -0.91958
H          9.82218        33.73270        -0.42959
H         12.45574         5.82666        -1.35893
H         11.33239         8.02701        -1.29489
H         11.30590        35.76738        -1.38288
H         12.42252        38.01011        -1.31612
H         14.60472         4.80536        -1.93731
H         14.47921        39.31586        -1.13534
H         16.94726         4.96919        -2.19332
H         16.81780        39.43403         0.12393
H         19.52206         4.72946        -1.58276
H         19.46715        39.30380         0.87182
H         21.90994         4.58709        -1.33161
H         21.95402        39.34005         0.72188
H         24.38460         4.47697        -1.12263
H         24.36952        39.29015         0.67948
H         26.84808         4.43153        -1.14210
H         26.61958        39.14176         1.41634
H         29.35428         4.48829        -1.38167
H         29.46799        39.37599         1.36458
H         33.98754         5.78613        -1.18626
H         31.92716         4.49239        -1.32248
H         33.92818        38.12916         1.17669
H         31.80549        39.36258         1.18465
H         35.20788         7.82541        -0.70448
H         36.53963         9.96126         0.10814
H         36.47648        33.95690         0.20662
H         35.18430        36.06954         0.79626
H         37.67876        12.09665         0.22536
H         38.85309        14.27703         0.24429
H         38.95933        29.56894         0.24865
H         37.73531        31.77502         0.20926
H         40.08118        16.37616         0.19209
H         41.36938        18.57081         0.20317
H         41.36309        25.32644         0.21407
H         40.20419        27.49556        -0.04682
H         42.54503        20.71430         0.39670
H         42.56709        23.16906         0.41914
