         762
 CSIRO Nanostructure Databank - Neutral Graphene Oxide Data Set
C         22.56391        24.66838         0.38431
C         21.46425        25.45653         0.23562
C         22.63207        27.51361         0.88236
C         21.47751        26.86208         0.52643
C         22.68678        28.93252         1.24768
C         21.49119        29.56323         1.65072
C         22.75444        31.48664         2.34337
C         21.53213        30.81639         2.24484
C         22.80745        33.73107         2.12755
C         21.64904        34.48585         1.92758
C         22.92208        35.98507         0.51154
C         21.69933        35.57939         1.06632
C         22.99356        37.16254        -0.37714
C         21.82466        38.00210        -0.64110
C         23.22846        39.89851        -1.35562
C         21.95531        39.23105        -1.20465
C         23.27120        41.25842        -1.85608
C         22.16711        41.89566        -2.38154
C         23.33411        44.03591        -2.69519
C         22.20936        43.23825        -2.84134
C         23.31828        45.45390        -3.07301
C         22.17316        46.05597        -3.63670
C         23.33841        48.16670        -3.86793
C         22.18206        47.40039        -4.00201
C         25.13325        23.11793         0.54168
C         25.11131        24.49902         0.78367
C         23.81544        25.21647         0.92223
C         25.16631        27.41298         0.95048
C         23.85720        26.72203         1.11091
C         25.19238        28.93158         1.06028
C         23.91994        29.62578         1.36349
C         25.20237        31.76035         1.75600
C         23.96179        30.97496         1.81358
C         25.22621        33.17719         1.65792
C         24.03887        34.02913         1.51414
C         25.40787        35.92526         0.68452
C         24.12010        35.27690         0.82203
C         25.49996        37.26192         0.23380
C         24.37729        37.86559        -0.49953
C         25.57791        40.08248        -0.58004
C         24.39271        39.29030        -0.86289
C         25.60076        41.43630        -0.93434
C         24.61640        41.93987        -1.97262
C         25.59899        44.25377        -1.78983
C         24.52761        43.45413        -2.10804
C         25.63019        45.67926        -2.17105
C         24.47500        46.24936        -2.89301
C         25.77959        48.33469        -3.36738
C         24.51180        47.60175        -3.33037
C         25.90428        49.66271        -3.71573
C         27.54790        23.02664         0.79083
C         26.32087        22.38684         0.54824
C         27.52970        24.42557         1.00598
C         26.33672        25.18435         1.02299
C         27.58410        27.34172         1.38227
C         26.40176        26.63998         1.17432
C         27.60897        28.78266         1.57387
C         26.45565        29.56399         1.48441
C         27.66874        31.66729         1.86926
C         26.45568        31.00388         1.71435
C         27.69181        33.13238         2.00736
C         26.47714        33.89458         1.63160
C         27.76847        36.04617         1.45090
C         26.53886        35.25264         1.27572
C         27.87077        37.40980         0.90152
C         26.67606        38.06648         0.42223
C         27.89529        40.22507         0.39847
C         26.68838        39.43981         0.09328
C         27.98135        41.66532        -0.01731
C         26.70965        42.31752        -0.53708
C         28.13571        44.37007        -1.29109
C         26.77483        43.72243        -1.07927
C         28.25341        45.58987        -2.13092
C         26.99793        46.33308        -2.38340
C         28.35834        48.22105        -3.46123
C         27.02155        47.54112        -3.25903
C         28.37578        49.68929        -3.56950
C         27.16554        50.33028        -3.76085
C         30.09763        20.21251         0.95917
C         28.87597        20.87838         0.94660
C         30.04846        22.97529         0.72536
C         28.82179        22.28100         0.83524
C         29.99270        24.44721         0.61047
C         28.81284        25.10979         1.23857
C         30.14741        27.29610         1.26030
C         28.85659        26.58265         1.47201
C         30.18336        28.66559         1.84049
C         28.88025        29.40645         2.02997
C         30.23199        31.63079         1.91520
C         28.92785        30.93214         2.13021
C         30.24964        32.99526         1.69056
C         29.05439        33.81665         1.96087
C         30.32829        35.94234         1.30592
C         29.09595        35.29573         1.73365
C         30.34299        37.32105         1.06615
C         29.11191        38.03960         0.88070
C         30.47097        40.12935         0.31523
C         29.19163        39.49655         0.69921
C         30.46995        41.45766        -0.23534
C         29.30634        42.22449        -0.37168
C         30.64355        44.09908        -1.61227
C         29.33433        43.47985        -1.18120
C         30.71804        45.51310        -2.03440
C         29.49336        46.14967        -2.42852
C         30.86369        48.28171        -2.83258
C         29.60436        47.48901        -3.06203
C         30.79712        49.75925        -2.85727
C         29.62261        50.41909        -3.30306
C         30.78138        52.54701        -3.04174
C         29.65866        51.82581        -3.41859
C         32.72955        18.83244         1.03228
C         32.60472        20.19516         0.89236
C         31.32444        20.89839         0.83060
C         32.52144        23.08514         0.42910
C         31.29301        22.31475         0.69264
C         32.49832        24.48668         0.30782
C         31.24168        25.23615         0.39526
C         32.55882        27.39464         0.63347
C         31.27054        26.66560         0.81146
C         32.65052        28.81768         1.11270
C         31.47310        29.42231         1.81889
C         32.71304        31.54280         1.77020
C         31.47604        30.90134         1.84589
C         32.77289        32.94916         1.55470
C         31.50654        33.64043         1.27393
C         32.84120        35.82386         1.29310
C         31.55344        35.15160         1.09683
C         32.81412        37.29434         1.31143
C         31.59001        38.01474         0.90950
C         32.96026        39.88412         0.00735
C         31.64916        39.36145         0.49080
C         33.00288        41.21616        -0.68344
C         31.79397        42.08941        -0.54284
C         33.17117        43.99527        -1.74455
C         31.88769        43.46703        -1.09897
C         33.18316        45.51296        -1.66859
C         31.95600        46.19768        -1.99330
C         33.19964        48.33514        -1.99348
C         32.02278        47.61619        -2.20229
C         33.16515        49.78946        -2.04388
C         31.93366        50.48856        -2.42178
C         33.02273        52.69747        -1.93782
C         31.90803        51.90562        -2.49948
C         33.18951        54.11866        -2.23279
C         35.18769        18.82402         0.95182
C         34.00069        18.16527         1.10781
C         35.16413        20.29255         0.79895
C         33.83660        21.00897         0.81045
C         34.92703        23.03075        -0.35398
C         33.74585        22.39109         0.32508
C         35.01148        24.51010        -0.00508
C         33.72456        25.27126        -0.08569
C         35.05140        27.33111         0.57251
C         33.82549        26.66473         0.48925
C         35.12702        28.72608         1.00047
C         33.97410        29.39911         1.35146
C         35.25497        31.50978         1.69116
C         33.99373        30.75096         2.01160
C         35.22437        32.89828         1.67296
C         33.99312        33.64891         1.53888
C         35.30789        35.79380         1.42727
C         34.02341        35.09487         1.42621
C         35.37404        37.18487         1.18852
C         34.16040        38.00177         1.17615
C         35.46298        39.89532         0.29665
C         34.22395        39.29363         0.48777
C         35.57536        41.18835        -0.42342
C         34.34110        41.86739        -0.93543
C         35.59064        44.00495        -1.14876
C         34.40733        43.33821        -1.16500
C         35.61319        45.48786        -1.14440
C         34.37419        46.20840        -1.52469
C         35.66172        48.32904        -1.62369
C         34.43293        47.64189        -1.66540
C         35.63374        49.79011        -1.83477
C         34.33036        50.48588        -1.76989
C         35.56560        52.70631        -1.39052
C         34.31771        51.93521        -1.54527
C         35.46139        54.10642        -1.29552
C         34.30699        54.78065        -1.81355
C         37.84682        16.24506         1.65718
C         36.63078        16.76821         1.43310
C         37.69250        18.76178         0.37128
C         36.55255        18.26600         1.30871
C         37.59569        20.26695         0.19355
C         36.36816        20.96056         0.23139
C         37.39667        23.04722        -0.65365
C         36.23812        22.30676        -0.15686
C         37.42059        24.53315        -0.42855
C         36.19922        25.21320         0.04634
C         37.54579        27.32335         0.27751
C         36.28389        26.62720         0.30981
C         37.60942        28.71753         0.68374
C         36.42901        29.38213         1.08678
C         37.72876        31.42188         1.46178
C         36.47962        30.76515         1.46920
C         37.78649        32.83613         1.83620
C         36.48008        33.63326         1.86123
C         37.75918        35.74706         1.57648
C         36.51498        35.07582         1.59148
C         37.79618        37.14448         1.36831
C         36.61618        37.86781         1.10262
C         37.93993        39.94822         0.64279
C         36.67189        39.26634         0.73302
C         38.04491        41.30871         0.14491
C         36.76232        42.08343        -0.08877
C         38.14613        44.06128        -0.90049
C         36.89087        43.23493        -1.11321
C         38.19276        45.40271        -1.14135
C         36.93139        46.21040        -1.12247
C         38.13503        48.37403        -1.34818
C         36.94425        47.67734        -1.42202
C         38.25293        49.88245        -1.59003
C         36.90325        50.59615        -1.70897
C         37.99736        52.71018        -0.93523
C         36.82424        52.02427        -1.30255
C         37.92916        54.16317        -0.63066
C         36.61466        54.89366        -0.82888
C         37.85596        57.02332        -0.56232
C         36.68394        56.35239        -0.90512
C         39.83327        16.26016         3.82424
C         40.13868        16.67831         2.50887
C         39.05766        17.06514         1.59672
C         40.28466        19.02607         0.61034
C         39.07140        18.25372         0.87143
C         40.16454        20.44575         0.16260
C         38.81900        21.02773        -0.10854
C         39.88845        23.07274        -1.24923
C         38.67434        22.30068        -0.88554
C         39.92872        24.52886        -0.86768
C         38.73161        25.22413        -0.31979
C         40.02939        27.34271        -0.12839
C         38.74080        26.68995        -0.12177
C         40.10408        28.72857         0.31676
C         38.88592        29.39057         0.69082
C         40.18837        31.46854         1.07762
C         38.93329        30.76322         1.08004
C         40.25102        32.87232         1.42623
C         39.04053        33.57384         1.64241
C         40.22640        35.66541         1.68181
C         38.99628        34.98528         1.67539
C         40.28385        37.10434         1.39430
C         39.04866        37.92207         1.64373
C         40.38285        39.95361         1.01847
C         39.11770        39.28037         1.00358
C         40.47571        41.32307         0.54584
C         39.26423        41.95247         0.04857
C         40.62180        44.02589        -0.50652
C         39.39397        43.21096        -0.80392
C         40.71769        45.31394        -0.97461
C         39.49641        46.11855        -1.32757
C         40.62298        48.48124        -0.87439
C         39.45609        47.66549        -1.34547
C         40.42193        49.78991        -0.20467
C         39.19158        50.56709        -0.59716
C         40.38519        52.79498        -0.25399
C         39.21949        52.05502        -0.62049
C         40.40795        54.20709        -0.24953
C         39.21439        54.94251        -0.82090
C         40.29826        57.18728        -0.00767
C         39.08628        56.38567        -0.41451
C         40.40948        58.43089        -0.86571
C         42.14457        16.61646         4.50574
C         40.83418        16.21179         4.79392
C         42.46747        16.99780         3.19548
C         41.48176        16.93239         2.20537
C         42.80854        19.36212         0.54972
C         41.59112        18.56638         0.72398
C         42.69807        20.53171        -0.17251
C         41.35373        21.01645        -0.56755
C         42.41922        23.21530        -1.42433
C         41.21802        22.36971        -1.23213
C         42.35493        24.58991        -1.43563
C         41.06393        25.38437        -1.38620
C         42.50534        27.27847        -0.43945
C         41.17249        26.68044        -0.59741
C         42.61356        28.74004        -0.02031
C         41.33369        29.44592         0.28494
C         42.60495        31.61990         0.48061
C         41.36189        30.81696         0.64507
C         42.74128        32.90819         1.21692
C         41.51446        33.55485         1.56669
C         42.53544        35.75314         2.31107
C         41.42917        34.96587         1.84330
C         42.71891        37.09972         2.07799
C         41.59452        37.83062         1.47054
C         42.74827        40.05654         1.79815
C         41.54158        39.29676         1.44342
C         42.89046        41.40869         1.19112
C         41.72040        41.96149         0.52489
C         43.16806        43.95710        -0.18720
C         41.84053        43.24382        -0.21236
C         43.16644        45.40327        -0.48058
C         42.04404        45.87406        -1.11270
C         43.07395        48.61159        -0.36317
C         41.91591        48.08352        -1.05703
C         42.99862        49.90924         0.11101
C         41.66161        50.56100         0.18849
C         42.92930        52.77113         0.01950
C         41.61649        52.06634         0.16303
C         42.88900        54.27248         0.01275
C         41.58257        54.98103         0.00510
C         42.82456        57.13172        -0.09030
C         41.58655        56.38196        -0.03070
C         42.82656        58.40040        -0.64024
C         41.61582        58.98945        -1.13367
C         45.62910        17.04116         1.69395
C         44.39454        17.72928         1.74821
C         45.29123        19.35759         0.16462
C         44.13937        18.80215         0.84661
C         45.22317        20.61825        -0.52217
C         43.87015        21.13621        -0.83872
C         44.90968        23.20204        -1.99995
C         43.69435        22.45658        -1.54797
C         44.71871        24.70672        -2.21492
C         43.55841        25.38812        -1.60976
C         45.02396        27.37262        -0.96030
C         43.66609        26.67645        -1.14089
C         44.98485        28.90814        -0.91603
C         43.85193        29.50156        -0.39206
C         45.15544        31.61782         0.07470
C         43.82218        30.96540        -0.12406
C         45.14749        33.02321         0.54322
C         44.04686        33.54196         1.23557
C         45.31772        35.67316         1.76173
C         44.31780        34.75701         1.99871
C         45.32929        37.04275         2.31584
C         43.96375        37.79374         2.44119
C         45.28719        40.00671         2.35997
C         43.95833        39.29694         2.32931
C         45.28684        41.47749         1.95735
C         44.11043        42.06956         1.27111
C         45.58929        44.12589         0.56241
C         44.33965        43.30860         0.47090
C         45.63411        45.58757         0.17321
C         44.38878        46.26499        -0.33775
C         45.42943        48.47153         0.62893
C         44.21370        47.73791         0.03329
C         45.41992        49.94246         0.55976
C         44.21079        50.64450         0.43792
C         45.37785        52.85915         0.48129
C         44.18863        52.08480         0.39328
C         45.37594        54.26054         0.46041
C         44.10137        54.99610         0.48397
C         45.39348        57.18245         0.26490
C         44.08233        56.50559         0.40036
C         46.66182        17.46279         0.88001
C         47.72242        19.31073        -0.40143
C         46.55318        18.69118         0.19104
C         47.69101        20.68737        -0.76639
C         46.37777        21.34291        -0.90524
C         47.29810        23.53838        -1.50229
C         46.22637        22.63469        -1.58761
C         47.69033        24.62997        -2.31598
C         45.84263        25.59692        -2.48216
C         47.24539        27.58635        -2.27729
C         46.03382        26.82851        -1.93958
C         47.25522        29.02932        -1.95795
C         46.20750        29.67018        -1.29193
C         47.49676        32.00892        -0.83594
C         46.35246        31.04697        -0.65824
C         47.60786        33.20697        -0.09233
C         46.35715        33.84487         0.36916
C         47.72700        35.91523         1.13645
C         46.41650        35.26949         0.87095
C         47.80354        37.16524         1.72045
C         46.55858        37.86222         2.08523
C         47.84090        39.95550         2.03605
C         46.54747        39.22662         2.20578
C         47.87564        41.43482         1.95553
C         46.59933        42.22492         1.92895
C         47.98596        44.30308         1.35077
C         46.67740        43.63087         1.45636
C         47.99364        45.66025         1.13096
C         46.76954        46.37157         0.75005
C         47.88317        48.49001         1.30596
C         46.71808        47.73681         0.79043
C         47.85053        49.97987         1.30940
C         46.69955        50.67647         0.65052
C         47.75511        52.96498         1.41690
C         46.69283        52.17468         0.63328
C         47.92784        54.34877         0.80071
C         46.63410        55.02977         0.37224
C         46.55451        56.50171         0.27458
C         50.10761        19.14275        -1.00624
C         48.93030        18.57480        -0.54337
C         50.16594        20.52648        -1.25925
C         48.97631        21.27739        -1.06441
C         50.17756        23.44401        -1.51931
C         49.13776        22.69847        -1.01728
C         50.07621        24.87669        -1.70491
C         48.80235        25.45772        -2.07006
C         49.91482        27.70946        -2.36764
C         48.65647        26.88630        -2.41565
C         49.77953        29.18176        -2.28373
C         48.50159        29.67531        -2.36827
C         49.86845        32.30246        -1.51038
C         48.58706        31.76728        -1.67458
C         49.97450        33.47072        -0.73506
C         48.81112        33.95321        -0.09555
C         50.26415        35.86407         0.92210
C         48.93148        35.15692         0.77629
C         50.25734        37.23729         1.47745
C         49.09367        37.83642         1.88518
C         50.38854        40.02051         2.26536
C         49.09256        39.23181         2.50850
C         50.42229        41.38963         2.27227
C         49.12937        42.19417         2.36554
C         50.50556        44.24102         1.72050
C         49.21235        43.51184         1.60793
C         50.40880        45.71685         1.87184
C         49.20713        46.42721         1.36939
C         50.45019        48.55903         1.43329
C         49.17647        47.79017         1.44071
C         50.43903        50.04154         1.23270
C         49.13599        50.74911         1.49764
C         50.38296        52.99493         1.54291
C         49.09676        52.23591         1.57262
C         50.27489        54.43928         1.56285
C         49.13436        55.09479         1.22400
C         52.75638        20.64537        -1.57570
C         51.40352        21.21127        -1.74835
C         52.63982        23.51628        -1.94712
C         51.39169        22.73266        -1.94483
C         52.53980        24.91655        -1.90286
C         51.27621        25.58179        -1.89719
C         52.45849        27.83196        -2.10952
C         51.22430        27.02549        -2.20513
C         52.36293        29.30612        -1.98025
C         51.01530        30.02772        -2.02762
C         52.34232        32.19604        -1.57870
C         51.05540        31.59621        -2.17104
C         52.40789        33.65022        -1.35689
C         51.15190        34.39200        -0.98924
C         52.59061        36.13904         0.04776
C         51.38977        35.44711         0.06340
C         52.78246        37.31974         0.95389
C         51.58993        37.85446         1.70384
C         52.98600        39.95735         2.26399
C         51.64772        39.18586         2.45545
C         52.96500        41.45186         2.49148
C         51.66587        42.16316         2.39500
C         52.89388        44.34275         2.47820
C         51.69828        43.54034         2.25047
C         52.88056        45.71376         2.49888
C         51.63180        46.48026         2.26367
C         52.82330        48.65500         2.20185
C         51.69195        47.91762         1.91363
C         52.85422        50.10151         2.07718
C         51.75039        50.84316         1.32248
C         52.79970        52.97382         2.07259
C         51.57649        52.30713         1.71987
C         53.87842        21.37857        -1.80171
C         55.07888        23.52834        -2.30132
C         53.89299        22.81508        -2.05001
C         55.04128        25.01260        -2.33756
C         53.76191        25.73603        -2.02631
C         54.81586        27.96687        -2.76815
C         53.64908        27.19997        -2.26007
C         54.81368        29.43816        -2.54646
C         53.63946        30.05175        -2.15470
C         54.88730        32.25286        -1.97798
C         53.66387        31.46506        -1.74834
C         54.86929        33.63198        -1.70314
C         53.63897        34.30034        -1.26713
C         54.88594        36.44784        -0.88246
C         53.68478        35.62547        -0.71311
C         55.10390        37.60637         0.04869
C         53.97049        38.19809         0.78732
C         55.29416        40.25852         1.24903
C         54.11444        39.42529         1.43422
C         55.31723        41.62734         1.73468
C         54.18730        42.24359         2.22670
C         55.40331        44.48039         2.54014
C         54.18285        43.62384         2.85481
C         55.36722        45.83670         2.71368
C         54.04770        46.45347         3.14471
C         55.22528        48.74953         2.98849
C         53.90601        48.01958         3.06680
C         55.14680        50.16489         3.04636
C         53.94362        50.83171         2.53765
C         53.91028        52.27412         2.45106
C         57.53046        23.69068        -2.42570
C         56.39735        22.94941        -2.26610
C         57.49761        25.07294        -2.95637
C         56.16039        25.74703        -3.01106
C         57.31030        27.99847        -3.63450
C         56.04766        27.24213        -3.20410
C         57.18908        29.54124        -3.40753
C         56.02175        30.19684        -2.78609
C         57.27711        32.36287        -2.60968
C         56.05592        31.59213        -2.49603
C         57.25352        33.75596        -2.26111
C         56.07503        34.38554        -1.86297
C         57.40197        36.50346        -1.40011
C         56.08612        35.83853        -1.56939
C         57.36341        37.96460        -1.10331
C         56.35332        38.41430        -0.09617
C         57.54304        40.55582         0.21356
C         56.40625        39.79019         0.45878
C         57.74944        41.80739         0.94883
C         56.59561        42.38695         1.74480
C         57.79044        44.57573         1.97028
C         56.62104        43.84510         2.06591
C         57.91359        45.91431         2.56152
C         56.60168        46.70845         2.50408
C         57.46929        48.82081         3.79206
C         56.44615        48.06520         3.19246
C         57.36155        50.20383         4.00351
C         56.25341        50.89050         3.52582
C         59.97101        25.27448        -3.38905
C         58.74861        25.92146        -2.80201
C         59.80796        28.11753        -3.32919
C         58.62018        27.38704        -3.16852
C         59.79004        29.58350        -3.31258
C         58.52210        30.33372        -3.37859
C         59.75997        32.42251        -2.88794
C         58.50835        31.73278        -2.92284
C         59.76221        33.90105        -2.83599
C         58.47759        34.57367        -2.45504
C         59.87701        36.56181        -1.51131
C         58.54284        35.91723        -1.82852
C         59.86196        38.09053        -1.55906
C         58.56701        38.80528        -1.36768
C         59.91897        40.83549        -0.61730
C         58.54338        40.27340        -0.90562
C         59.95293        42.19664        -0.10064
C         58.86838        42.69523         0.57635
C         60.28202        44.46611         1.52363
C         58.89111        44.13405         1.03120
C         60.42188        45.61344         2.48168
C         59.19181        46.39418         2.85264
C         60.78337        48.11539         3.72724
C         59.51438        47.60160         3.59575
C         61.08627        26.02924        -3.62863
C         61.04708        27.43492        -3.47828
C         60.94764        30.29365        -3.04766
C         60.94788        31.70236        -2.93666
C         61.02460        34.67244        -2.69594
C         61.04816        35.92501        -2.22095
C         61.02324        38.77523        -1.36171
C         61.05224        40.15427        -0.95144
C         61.17116        43.00094        -0.21974
C         61.36988        44.05595         0.59549
C         61.75463        46.24210         2.58220
C         61.91970        47.45415         3.16169
O         30.28882        24.96415        -0.72628
O         60.47531        44.19671         2.93587
O         48.37887        30.99172        -2.80650
O         49.82595        34.86186         1.91461
O         36.36128        50.30610        -3.04748
O         27.37426        44.60997        -0.08274
O         45.46321        45.90596        -1.25307
O         39.72430        24.58844         0.58398
O         45.19450        41.04826         3.36547
O         41.51497        51.33609         1.42281
O         50.10525        43.62401         0.44708
O         32.01394        43.27131         0.33285
O         53.31262        40.51445         3.56960
O         34.70542        20.95701         2.04445
O         41.04323        37.32989         0.16985
O         39.61749        46.87326        -2.56803
O         51.22140        21.82039        -3.07876
O         37.13303        54.46211         0.51808
O         25.22677        28.25813        -0.24728
O         58.57470        48.23125         4.39225
O         57.69298        30.21369        -4.58725
O         55.14950        36.69563        -2.31413
O         35.19691        41.06807        -1.83062
O         36.18790        45.97365         0.14071
O         29.89358        43.23055        -2.52273
O         44.68543        37.28802         3.59318
O         39.58890        21.35281         1.15967
O         56.25916        37.38235         0.94994
O         44.57724        23.74646        -3.31426
O         33.45032        37.95060         2.46884
O         43.62207        21.20914        -2.30397
O         27.70743        47.45771        -4.54108
O         23.84975        36.98013        -1.54203
O         32.83665        40.02317        -1.48115
O         32.39942        28.53843        -0.30816
O         46.80998        25.03984        -3.33299
O         42.86196        27.65806         0.95631
O         50.46787        49.20022         0.04140
O         54.78148        25.51970        -0.96908
O         28.41057        40.14182         1.76948
O         43.46034        35.02658         3.07476
O         52.53016        36.92227         2.35548
O         51.58380        29.61647        -0.75323
O         42.75879        43.16346        -1.35699
O         22.75322        32.68869         3.06371
O         28.81734        30.07411         3.31607
O         28.40855        33.51307         3.23570
O         57.50629        38.65983        -2.39066
O         26.20448        46.59635        -1.18225
O         39.05665        22.47551        -2.28928
O         27.06525        42.37663         0.88210
O         43.89038        55.81252         1.68391
O         42.18504        47.01347        -1.90066
O         48.10706        23.38216        -0.35985
O         46.08050        35.03793        -0.53255
O         53.30898        48.44934         4.29124
O         28.37376        35.99744         2.78091
O         30.59464        47.61542        -4.12933
O         33.16840        43.69710        -3.10861
O         46.43917        43.34064         2.87537
O         47.84644        27.26417        -3.55907
O         31.46560        34.25583        -0.07594
O         44.38523        47.89153         1.48544
O         43.01564        39.92297         3.24717
O         57.66083        41.64517         2.41623
O         48.01315        40.62588         0.73957
O         49.10937        51.40970         2.80470
O         28.97543        25.62475         2.60005
O         41.84078        17.19374         0.86622
O         54.99813        27.56132        -4.19145
O         43.08470        53.52708        -1.23826
O         41.16569        21.13746        -2.00982
O         56.73046        25.13051        -4.20194
O         47.13018        51.43423        -0.54159
O         42.94456        31.75288        -0.98538
O         50.61458        46.11879         3.28009
O         58.91444        34.53341        -3.86620
O         37.14629        23.98029        -1.77061
O         39.28822        49.91263         0.70537
O         37.14610        33.20668         3.10432
O         53.00827        31.58826        -0.42527
O         46.14146        30.82537         0.80561
O         43.75013        17.44029         2.95659
O         45.42986        43.17349        -0.52883
O         50.69826        27.31590        -3.57927
O         47.59595        54.43706        -0.60247
O         33.31289        52.33669        -0.55454
O         47.48861        49.27103         2.52511
O         23.73718        25.83935         2.26411
O         31.05729        28.72365         3.02807
O         52.25386        50.97424        -0.04446
H         51.93330        50.18082        -0.53798
O         56.54850        47.08698         1.07184
H         56.98939        46.37838         0.54840
O         25.18021        41.50371        -3.26889
H         25.01305        40.54074        -3.35751
O         48.94595        39.10709         3.94027
H         49.82332        38.81031         4.29415
O         34.64208        22.91333        -1.79094
H         35.39334        23.34949        -2.26162
O         47.21342        53.18194         2.73468
H         47.58164        52.47949         3.32307
O         34.04658        30.49535         3.45439
H         34.19476        31.35066         3.91088
O         40.07619        57.62011         1.37365
H         40.86344        58.13085         1.65730
O         39.43733        54.93710        -2.27370
H         40.36353        55.21272        -2.44426
O         38.92462        50.03572        -2.86414
H         38.25214        49.86751        -3.56415
O         40.74410        25.75687        -2.75779
H         40.76802        24.95001        -3.31558
O         39.05600        38.14555         3.09738
H         38.24136        38.63648         3.33734
O         33.50110        25.51793        -1.52940
H         34.24768        26.06806        -1.85020
O         58.95965        25.91007        -1.33035
H         59.83454        26.32009        -1.15768
O         57.40870        27.79931        -5.06572
H         56.49105        27.78042        -5.42239
O         51.08069        31.92159        -3.57517
H         50.22414        31.63675        -3.96484
O         58.06161        41.08785        -2.01724
H         57.52196        40.48843        -2.58911
O         39.70073        42.67920        -2.12977
H         38.83696        42.53371        -2.59483
O         45.47181        26.96471         0.36941
H         44.74936        27.21397         0.99814
O         53.94864        46.11924         4.55805
H         53.51215        46.92545         4.97126
O         60.07501        36.25212        -0.08651
H         60.93502        36.63236         0.19272
O         51.59491        38.79684         3.85736
H         52.27916        38.10043         3.98714
O         36.41237        42.68385         1.18976
H         36.86244        43.55204         1.27173
O         37.08756        42.69840        -2.45065
H         36.30995        42.11577        -2.66237
O         48.98362        42.57054         3.75131
H         48.88732        41.75828         4.29314
O         37.43560        18.17762        -0.93470
H         38.16916        18.42097        -1.53751
O         54.15787        43.40375         4.28478
H         54.04477        44.29687         4.70323
O         58.63646        44.96182        -0.16206
H         59.17526        44.60118        -0.89956
O         36.81973        18.79567         2.63723
H         36.34337        19.64725         2.74879
O         50.72694        35.15448        -2.18677
H         50.77326        34.54692        -2.95737
H         22.53333        23.62392         0.04426
H         20.53587        25.02104        -0.16022
H         20.54389        27.42215         0.37853
H         20.53547        29.02802         1.58390
H         20.62641        31.27618         2.65974
H         20.71865        34.20943         2.43868
H         20.78063        36.14480         0.86452
H         20.82043        37.62616        -0.40200
H         21.04018        39.79118        -1.43715
H         21.20074        41.37754        -2.44674
H         21.28498        43.65229        -3.26383
H         21.25440        45.47534        -3.78953
H         23.33513        49.20994        -4.21065
H         21.27593        47.85308        -4.42755
H         24.19032        22.58237         0.36747
H         25.00673        50.27775        -3.87082
H         26.28285        21.30394         0.36896
H         27.13611        51.42148        -3.88445
H         30.09532        19.11958         1.06879
H         27.95038        20.29419         1.04074
H         30.75935        53.64152        -3.12690
H         28.78744        52.37395        -3.79888
H         31.83204        18.20342         1.11199
H         32.40784        54.66332        -2.77896
H         33.98558        17.08173         1.29071
H         34.36159        55.86758        -1.96478
H         37.97206        15.17283         1.87100
H         35.72703        16.14450         1.46022
H         37.79845        58.11061        -0.40573
H         35.77487        56.93719        -1.10071
H         38.79155        16.04190         4.09419
H         39.49051        58.91644        -1.22223
H         42.91206        16.63924         5.28942
H         40.58105        15.90318         5.81714
H         43.76509        58.95730        -0.75754
H         41.68089        59.92561        -1.70628
H         45.77105        16.17874         2.35858
H         45.41381        58.27566         0.14903
H         47.60263        16.89860         0.88455
H         47.50067        57.04681         0.14738
H         50.99521        18.51166        -1.15136
H         48.93208        17.49836        -0.32793
H         51.16906        55.03435         1.79474
H         49.12835        56.19329         1.18539
H         52.85581        19.58990        -1.28080
H         52.82575        54.07115         2.12629
H         54.84869        20.86881        -1.71388
H         54.79711        52.84709         2.75220
H         58.51036        23.22729        -2.24120
H         56.49945        21.88996        -1.99005
H         58.18894        50.73560         4.49021
H         56.22988        51.98434         3.60890
H         59.99378        24.18231        -3.50655
H         60.92580        49.01996         4.33146
H         62.01891        25.55315        -3.96300
H         61.96822        28.00175        -3.66154
H         61.91125        29.77568        -2.95784
H         61.91237        32.22095        -2.85918
H         61.94310        34.24145        -3.12283
H         62.00615        36.46664        -2.21340
H         61.99120        38.25714        -1.42562
H         62.03803        40.61249        -0.79211
H         61.95447        42.68384        -0.92240
H         62.32363        44.60140         0.57691
H         62.62372        45.66028         2.24969
H         62.91600        47.90520         3.26069
