         732
 CSIRO Nanostructure Databank - Neutral Graphene Oxide Data Set
C         23.65148        24.95383        -3.02446
C         22.47193        25.66083        -3.20811
C         23.21169        27.47534        -1.76547
C         22.23080        26.89024        -2.51538
C         23.01740        28.71512        -0.91331
C         21.79675        29.54798        -1.21067
C         23.10358        31.65637        -1.56931
C         21.82372        30.87330        -1.39999
C         23.06157        33.12579        -1.16870
C         21.87317        33.86006        -1.25248
C         23.06088        35.96333        -0.94147
C         21.87612        35.25679        -1.13342
C         23.07405        37.46907        -1.08001
C         21.86398        38.18067        -0.52945
C         23.13051        40.27359        -0.46727
C         21.89669        39.52205        -0.34865
C         23.15894        41.69744        -0.49789
C         21.96698        42.47004        -0.61644
C         23.23745        44.55722        -0.69287
C         22.00882        43.84276        -0.72195
C         23.28581        45.99794        -0.82881
C         22.11824        46.75509        -1.04670
C         23.38800        48.81622        -1.08747
C         22.17707        48.14487        -1.18150
C         26.11385        23.39599        -2.28683
C         25.81863        24.70671        -1.79609
C         24.69342        25.46957        -2.22123
C         25.54438        27.38949        -0.75255
C         24.61687        26.92544        -1.85276
C         25.48472        28.80074        -0.54161
C         24.28696        29.53459        -0.90135
C         25.48680        31.65792        -0.73453
C         24.29110        30.92323        -0.98133
C         25.51925        33.06966        -0.77019
C         24.27815        33.81525        -0.93594
C         25.52259        35.96136        -0.70052
C         24.29195        35.24867        -0.84070
C         25.54492        37.37551        -0.52095
C         24.34575        38.12253        -0.59859
C         25.59606        40.23209        -0.29339
C         24.35738        39.53819        -0.45859
C         25.62635        41.65399        -0.30985
C         24.41233        42.39127        -0.45588
C         25.69920        44.50565        -0.44570
C         24.44405        43.81927        -0.52811
C         25.74396        45.93651        -0.53897
C         24.54660        46.67681        -0.74530
C         25.84842        48.79480        -0.73728
C         24.59734        48.11011        -0.85647
C         25.93099        50.23857        -0.76805
C         27.90048        23.06521        -0.65359
C         27.16602        22.64108        -1.79868
C         27.47932        24.29142        -0.09779
C         26.65356        25.21674        -0.74626
C         27.79272        27.26357         0.27099
C         26.64946        26.61971        -0.33895
C         27.77290        28.72805         0.35571
C         26.62362        29.48730        -0.12888
C         27.96798        31.64131        -0.19420
C         26.76897        30.88143        -0.66278
C         27.95689        33.06089        -0.33765
C         26.74977        33.76141        -0.59779
C         28.00821        35.92477        -0.27165
C         26.82316        35.23568        -0.90484
C         28.00253        37.32777        -0.09064
C         26.78398        38.06608        -0.24624
C         28.02107        40.16585         0.16895
C         26.80834        39.48238        -0.12796
C         28.07952        41.60475         0.10814
C         26.87751        42.34755        -0.21373
C         28.18392        44.46186        -0.27478
C         26.89739        43.75391        -0.30084
C         28.18795        45.92769        -0.12188
C         26.98890        46.63482        -0.38845
C         28.30353        48.71951        -0.34760
C         27.04714        48.05732        -0.49630
C         28.42607        50.14413        -0.83137
C         27.11787        50.88567        -0.76039
C         30.14117        20.15047         0.13172
C         29.10897        20.94619        -0.32927
C         30.06208        22.95379         0.72074
C         29.01846        22.34023        -0.06583
C         30.25432        24.42854         0.84099
C         29.11447        25.24114         0.86888
C         30.32030        27.31445         0.49109
C         29.04853        26.63080         0.58173
C         30.37548        28.72929         0.29838
C         29.14080        29.50413         0.39609
C         30.41056        31.59952        -0.07756
C         29.15027        30.93716         0.03149
C         30.41146        33.04368        -0.10504
C         29.18997        33.76327        -0.16448
C         30.42090        35.87368         0.22498
C         29.20139        35.19480        -0.07406
C         30.43295        37.28742         0.37781
C         29.21561        38.01184         0.24314
C         30.43718        40.09473         0.73433
C         29.22784        39.43099         0.39840
C         30.38258        41.54614         1.13435
C         29.27302        42.26032         0.41170
C         30.57193        44.40454         0.70156
C         29.43133        43.67681         0.11635
C         30.48767        45.85739         0.83477
C         29.36405        46.60759         0.22849
C         30.70978        48.72822         0.34474
C         29.43800        48.02521         0.10503
C         30.80152        50.10611         0.09779
C         29.54521        50.92370        -0.13853
C         31.02937        52.80749        -0.76613
C         29.83254        52.20249        -0.87878
C         32.68235        18.65173         0.98715
C         32.29036        19.91725         1.41004
C         31.14611        20.69436         0.97290
C         32.96706        23.19048         1.39260
C         31.02094        22.08001         1.27212
C         32.77543        24.42340         0.79546
C         31.51129        25.13018         0.74851
C         32.80310        27.26536         0.41700
C         31.52743        26.54731         0.53683
C         32.83860        28.71034         0.21348
C         31.59860        29.42563         0.09527
C         32.85820        31.54370        -0.45169
C         31.60237        30.84431        -0.12397
C         32.87960        33.04972        -0.23464
C         31.62533        33.75241         0.02697
C         32.88919        35.83795         0.44503
C         31.65028        35.15086         0.25877
C         32.89184        37.24171         0.68381
C         31.66392        37.96787         0.63326
C         32.89430        40.08073         1.05303
C         31.65652        39.38685         0.81547
C         32.90472        41.52292         1.17875
C         31.71807        42.25957         1.07796
C         32.92552        44.43708         1.42408
C         31.71581        43.70879         1.09431
C         33.00071        45.82571         1.40377
C         31.77039        46.61327         1.19547
C         33.09966        48.69377         1.00367
C         31.86959        48.02984         0.79700
C         33.18509        50.10670         0.78595
C         32.03601        50.79402         0.28507
C         33.26404        52.91949         0.33985
C         32.12347        52.18715        -0.04037
C         33.33304        54.35208         0.15138
C         35.19742        18.75743         1.35044
C         33.96586        18.08614         1.21294
C         35.29707        20.20190         1.26139
C         34.21455        21.03585         1.61068
C         35.31247        22.94314         0.61098
C         34.16555        22.39564         1.24325
C         35.25264        24.35792         0.19554
C         33.97339        25.11063         0.27631
C         35.31444        27.27276         0.60617
C         33.99765        26.57746         0.37942
C         35.31198        28.71199         0.20504
C         34.07275        29.37644         0.06571
C         35.36997        31.50679         0.01075
C         34.16261        30.75977        -0.52959
C         35.30486        32.90869         0.40033
C         34.12034        33.72614         0.15462
C         35.38523        35.78709         0.61367
C         34.12296        35.08897         0.44062
C         35.37478        37.23929         0.80625
C         34.11976        37.94047         0.93784
C         35.35295        40.05448         1.44893
C         34.10003        39.34564         1.13377
C         35.37895        41.52700         1.43407
C         34.16634        42.20647         1.39072
C         35.44417        44.35878         1.92310
C         34.12100        43.63537         1.74226
C         35.46214        45.83676         1.82224
C         34.23805        46.55686         1.63610
C         35.40041        48.73941         1.96654
C         34.24054        47.97333         1.52397
C         35.52470        50.19298         1.71600
C         34.35608        50.85813         1.15054
C         35.35711        53.06898         1.72703
C         34.34228        52.25414         0.98524
C         35.51704        54.49923         1.24989
C         34.40007        55.09029         0.57072
C         37.72546        15.98760         1.89961
C         36.51630        16.67121         1.77915
C         37.65035        18.64642         0.88476
C         36.44279        18.00878         1.32087
C         37.68045        20.01798         0.59677
C         36.49727        20.81357         0.76860
C         37.65432        22.84854        -0.28361
C         36.48474        22.20240         0.44249
C         37.78185        24.33050         0.01522
C         36.53360        25.10389         0.28784
C         37.73067        27.19677        -0.15155
C         36.53820        26.54695         0.10521
C         37.77191        28.64320        -0.05589
C         36.54787        29.37536         0.08592
C         37.83941        31.52222         0.24718
C         36.58337        30.83073         0.12667
C         37.88837        32.92051         0.35407
C         36.63379        33.64509         0.63528
C         37.89532        35.83084         0.73161
C         36.58472        35.10491         0.57843
C         37.76916        37.22817         0.14343
C         36.57903        37.92448         0.75580
C         37.90620        40.07561         0.96145
C         36.68779        39.30099         1.21501
C         37.91315        41.48490         1.22088
C         36.65981        42.21343         1.51100
C         37.94439        44.33969         1.75964
C         36.67926        43.59178         1.68751
C         37.94006        45.80869         1.66216
C         36.70281        46.49808         1.84244
C         38.00900        48.65012         1.98574
C         36.76115        47.92099         2.14924
C         38.00550        50.10107         2.44505
C         36.69934        50.88536         2.03968
C         37.65783        53.18696         2.43930
C         36.66156        52.33753         1.98352
C         37.85260        54.55659         2.01854
C         36.66037        55.23738         1.52846
C         37.93665        57.30873         1.36164
C         36.74910        56.67251         1.32465
C         40.27944        14.53057         2.04393
C         40.21215        15.87349         1.60488
C         38.94292        16.52499         1.43433
C         40.21768        18.52531         0.42267
C         38.87417        17.82279         0.75487
C         40.20448        19.98274         0.22194
C         38.97923        20.71073         0.40768
C         40.16713        22.86736        -0.48750
C         38.99070        22.22174         0.05798
C         40.10179        24.26689        -0.91369
C         38.93419        25.06737        -0.51270
C         40.15128        27.19778        -0.80446
C         38.94359        26.45652        -0.49221
C         40.13742        28.60363        -0.64942
C         38.99351        29.31059        -0.20150
C         40.30900        31.49055        -0.29831
C         39.13413        30.73264         0.28885
C         40.41441        32.94548         0.09392
C         39.09021        33.66928         0.16886
C         40.23091        35.82804        -0.19595
C         39.09132        35.08214         0.17306
C         40.23283        37.28172        -0.13660
C         39.06003        37.98888         0.22649
C         40.30663        40.08467         0.29503
C         39.08181        39.38457         0.48702
C         40.42878        41.45965         0.91272
C         39.11900        42.18051         1.07627
C         40.38557        44.41415         1.00065
C         39.22675        43.60425         1.42058
C         40.35957        45.79279         1.14474
C         39.14520        46.50960         1.48439
C         40.38913        48.67672         1.27462
C         39.15051        47.96404         1.58144
C         40.39042        50.10546         1.37477
C         39.29038        50.77697         1.97311
C         40.46354        52.94042         1.69239
C         39.50212        52.10647         2.30247
C         40.38861        54.39733         1.81375
C         39.12222        55.12996         1.91070
C         40.41184        57.30488         1.92468
C         39.23313        56.54962         1.34908
C         40.46339        58.65848         2.11482
C         42.68413        14.67421         2.31794
C         41.49308        13.94048         2.37181
C         42.70172        16.00754         1.88070
C         41.45225        16.61579         1.45672
C         42.61249        18.80419         1.09655
C         41.43883        17.92061         0.94611
C         42.71767        20.00946         0.19985
C         41.42770        20.66034        -0.20458
C         42.69968        22.94292        -0.52749
C         41.43979        22.16257        -0.57321
C         42.68915        24.31264        -0.74315
C         41.42737        25.02052        -1.07489
C         42.60935        27.17934        -1.15658
C         41.39677        26.50094        -1.01234
C         42.55895        28.62148        -1.44684
C         41.28885        29.38058        -1.12941
C         42.61137        31.53726        -1.20570
C         41.36783        30.84135        -0.86517
C         42.53361        33.03314        -1.43837
C         41.44313        33.72433        -0.66704
C         42.59154        35.85737        -1.01251
C         41.41781        35.12110        -0.65156
C         42.51906        37.33907        -1.25445
C         41.38911        38.02475        -0.49878
C         42.55459        40.22730        -0.78878
C         41.39759        39.42101        -0.30840
C         42.59936        41.67044        -0.41501
C         41.49673        42.33839         0.30992
C         42.68922        44.49741        -0.01123
C         41.53718        43.71230         0.44415
C         42.71098        45.88774         0.18640
C         41.68086        46.52631         1.09228
C         42.75985        48.73706         0.60364
C         41.56222        48.01650         0.90720
C         42.77198        50.16621         0.66462
C         41.56772        50.84810         1.05188
C         42.69272        53.03871         0.60197
C         41.54616        52.27031         1.09754
C         42.72599        54.53354         0.95256
C         41.56375        55.11630         1.62489
C         42.93168        57.24755         1.88806
C         41.65875        56.49972         2.20235
C         42.91187        58.63299         2.14764
C         41.71357        59.30910         2.35482
C         45.19360        16.18975         2.07113
C         43.94294        16.75431         1.84085
C         45.17475        18.95165         1.35556
C         43.90896        18.20182         1.56745
C         45.15269        20.26476         0.92357
C         44.00188        20.79363         0.14495
C         45.12547        23.11475         0.06215
C         44.03981        22.21222        -0.48005
C         45.12303        24.47460        -0.27965
C         43.89981        25.10601        -0.69379
C         45.10641        27.23003        -1.01903
C         43.88166        26.49952        -0.98706
C         45.13254        28.63569        -1.49088
C         43.82863        29.38857        -1.62985
C         45.03484        31.61720        -1.75157
C         43.77376        30.86845        -1.49864
C         45.06049        33.07093        -1.43786
C         43.85373        33.75199        -1.27186
C         45.06676        35.90057        -1.15296
C         43.83298        35.17723        -1.14559
C         45.05165        37.34774        -1.08936
C         43.84407        38.03441        -1.07431
C         45.11598        40.18703        -0.91453
C         43.82298        39.52206        -1.30924
C         45.16508        41.61766        -0.58922
C         43.91023        42.36702        -0.31296
C         45.06567        44.51182        -0.77421
C         43.89308        43.83547        -0.43677
C         44.95398        46.00447        -0.99693
C         43.84929        46.64936        -0.17712
C         45.20015        48.72025         0.05042
C         43.91227        48.01353         0.14615
C         45.23902        50.22590         0.22135
C         43.95914        50.92462         0.41941
C         45.16371        53.09013         0.25602
C         43.96659        52.33254         0.41142
C         45.19163        54.50361         0.55188
C         44.03879        55.19427         1.01822
C         45.37726        57.19377         1.41232
C         44.10934        56.54405         1.46711
C         46.38010        16.95672         2.07101
C         47.64752        19.08475         1.70728
C         46.40987        18.31366         1.74390
C         47.61244        20.48448         1.47586
C         46.31195        21.12778         1.21301
C         47.56082        23.30419         0.70626
C         46.28226        22.57704         0.78319
C         47.55653        24.64460         0.23003
C         46.32967        25.26180        -0.18130
C         47.57238        27.35278        -0.66362
C         46.32698        26.61798        -0.61135
C         47.55930        28.74353        -1.08957
C         46.39025        29.40661        -1.39571
C         47.57507        31.65615        -1.45975
C         46.36409        30.85741        -1.73827
C         47.54935        33.05214        -1.31477
C         46.30037        33.77341        -1.32977
C         47.54715        35.91333        -1.10583
C         46.30020        35.19714        -1.20741
C         47.54107        37.35981        -1.07108
C         46.32330        38.05447        -1.09226
C         47.55710        40.24004        -1.08900
C         46.31622        39.50031        -1.02834
C         47.53772        41.66150        -1.17855
C         46.36779        42.38461        -0.94463
C         47.51235        44.53604        -1.28800
C         46.30347        43.81957        -1.03333
C         47.46264        46.01740        -1.58568
C         46.28334        46.72739        -0.93644
C         47.48999        48.89171        -1.01306
C         46.32742        48.05428        -0.64217
C         47.56535        50.32404        -0.67902
C         46.40042        51.00331        -0.25596
C         47.56011        53.17596        -0.38277
C         46.37493        52.42486        -0.13812
C         47.60540        54.53995        -0.05153
C         46.43684        55.20293         0.47015
C         46.48847        56.55088         0.91748
C         50.05839        19.23382         1.97753
C         48.90101        18.47700         1.93868
C         50.03542        20.63371         1.78873
C         48.78998        21.27080         1.50965
C         49.95364        23.44716         1.11612
C         48.74784        22.68882         1.15149
C         49.98803        24.72965         0.55632
C         48.78720        25.36367         0.13390
C         50.06370        27.43199        -0.43815
C         48.78802        26.72343        -0.33839
C         50.09990        28.78594        -0.88371
C         48.85381        29.41617        -1.32328
C         50.08526        31.68104        -1.25706
C         48.84622        30.95060        -1.51589
C         50.03047        33.04417        -1.08547
C         48.78249        33.78184        -1.12437
C         50.00670        35.94286        -0.61542
C         48.75984        35.19270        -1.02609
C         50.02508        37.41824        -0.93467
C         48.79228        38.10525        -1.04897
C         50.03723        40.25595        -1.13125
C         48.78973        39.52746        -1.12842
C         50.04436        41.67208        -1.24895
C         48.77277        42.38130        -1.63962
C         49.98534        44.56639        -1.28697
C         48.75298        43.86539        -1.34825
C         49.98056        46.01636        -1.21867
C         48.78023        46.70397        -1.31567
C         50.03300        48.91007        -1.20687
C         48.78361        48.16571        -1.36203
C         49.98865        50.31949        -1.15071
C         48.77858        51.01368        -0.93906
C         50.06755        53.18590        -0.72895
C         48.75030        52.52212        -1.06182
C         50.03069        54.58322        -0.40952
C         48.86172        55.24066        -0.15289
C         52.47513        20.85734         2.25436
C         51.25602        21.41150         1.90537
C         52.46817        23.67566         1.73229
C         51.17822        22.86842         1.71818
C         52.47853        25.09585         1.17081
C         51.32947        25.30834         0.15703
C         52.52416        27.42379        -0.39049
C         51.27707        26.77147        -0.19378
C         52.53310        28.80224        -0.76155
C         51.32491        29.48038        -0.99402
C         52.61315        31.63382        -0.99641
C         51.37821        30.91893        -1.49676
C         52.52578        33.06943        -0.56288
C         51.31497        33.79029        -1.10730
C         52.55091        35.99628        -0.75229
C         51.29134        35.26846        -1.03507
C         52.52349        37.39882        -0.78287
C         51.25882        38.10814        -0.90674
C         52.49249        40.26919        -0.98067
C         51.26543        39.54180        -1.00161
C         52.46978        41.67662        -1.07897
C         51.25235        42.39745        -1.20894
C         52.42733        44.59888        -1.07623
C         51.23836        43.86606        -1.22933
C         52.44952        46.03057        -0.98087
C         51.22898        46.75128        -1.09843
C         52.49472        48.88616        -0.99524
C         51.25122        48.17446        -1.11612
C         52.51660        50.30469        -1.06568
C         51.26457        51.08209        -1.43013
C         52.53262        53.13864        -0.75051
C         51.25849        52.49634        -0.88656
C         53.68544        21.59618         2.20758
C         54.98176        23.58956         1.50714
C         53.72835        22.93081         1.85218
C         54.96932        24.76924         0.69009
C         53.78244        25.49058         0.48260
C         55.00653        27.28825        -0.84806
C         53.75735        26.70443        -0.22986
C         54.98815        28.80260        -0.78841
C         53.80973        29.49871        -0.85500
C         55.05932        31.68930        -0.75699
C         53.79922        30.96094        -0.87485
C         55.05814        33.12322        -0.69620
C         53.81176        33.85047        -0.67616
C         55.01290        36.01143        -0.46844
C         53.76777        35.24701        -0.64807
C         55.01159        37.45802        -0.71479
C         53.76378        38.14631        -0.79045
C         54.99402        40.26239        -0.84512
C         53.75440        39.55648        -0.89489
C         54.99566        41.68912        -0.78674
C         53.74783        42.40429        -1.13183
C         54.92186        44.61902        -0.62252
C         53.72706        43.90676        -1.09701
C         54.90789        46.00498        -0.51179
C         53.68112        46.73306        -0.77538
C         54.93650        48.85843        -0.55326
C         53.70237        48.15342        -0.76348
C         54.95353        50.27847        -0.65602
C         53.72221        50.99968        -0.88967
C         53.70328        52.43736        -0.82426
C         57.42660        23.67139         1.61689
C         56.19052        23.07507         1.97264
C         57.49542        24.66871         0.67917
C         56.24750        25.17074        -0.02699
C         57.48355        27.33450        -0.43094
C         56.29917        26.67013        -0.32431
C         57.55119        28.76283        -0.85212
C         56.25922        29.52059        -0.99214
C         57.52236        31.66845        -0.83405
C         56.27350        30.98959        -0.84118
C         57.52314        33.09229        -0.84559
C         56.29719        33.80193        -0.75727
C         57.52396        36.02808        -0.98072
C         56.33724        35.26342        -0.56603
C         57.48762        37.41076        -0.98019
C         56.24272        38.13619        -0.79839
C         57.45526        40.31050        -0.71286
C         56.23997        39.57143        -0.80068
C         57.42006        41.72182        -0.48988
C         56.15737        42.39454        -0.51375
C         57.36284        44.57583        -0.05418
C         56.06543        43.82573        -0.05856
C         57.31852        45.97019         0.08337
C         56.11898        46.71312        -0.15186
C         57.34466        48.88213        -0.02727
C         56.13900        48.14901        -0.21891
C         57.34953        50.27302        -0.21779
C         56.18411        50.96056        -0.51576
C         60.06342        24.67034         0.73660
C         58.79537        25.19242         0.21781
C         60.04590        27.40089        -0.20500
C         58.79301        26.63356        -0.31188
C         60.01242        28.85423        -0.37825
C         58.80122        29.53095        -0.63124
C         59.99210        31.69110        -0.67234
C         58.77366        30.95199        -0.74328
C         59.98358        33.13011        -0.84278
C         58.76593        33.80696        -0.94604
C         60.07567        35.98918        -1.40766
C         58.73997        35.24566        -1.29064
C         60.05988        37.49461        -1.37139
C         58.71266        38.21183        -1.23080
C         59.92737        40.31131        -0.68518
C         58.72180        39.63220        -0.81841
C         59.95438        41.82157        -0.60907
C         58.61945        42.45386        -0.28949
C         59.82079        44.52377         0.31205
C         58.59762        43.85015        -0.00223
C         59.83540        45.94182         0.49383
C         58.55105        46.66606         0.49824
C         59.89688        48.82103         0.31014
C         58.57724        48.20150         0.43572
C         61.21595        25.37332         0.56110
C         61.21030        26.72748         0.09978
C         61.20548        29.61324        -0.29440
C         61.19856        30.98281        -0.46405
C         61.21628        33.88990        -0.80401
C         61.26337        35.23284        -0.99294
C         61.24326        38.25175        -0.95109
C         61.17139        39.59450        -0.72685
C         61.04782        42.41177         0.23868
C         60.99375        43.72124         0.57556
C         61.01574        46.67282         0.64140
C         61.03623        48.08657         0.51779
O         34.66983        43.89031         3.08126
O         47.88967        48.69094        -2.42982
O         43.02572        18.98490         2.48487
O         44.69658        41.88365         0.83249
O         42.15724        41.27304        -1.77237
O         44.51253        28.87424        -2.81596
O         34.49976        24.61349        -1.04080
O         31.93453        22.65156         2.17558
O         29.15005        44.01872        -1.29747
O         39.13015        21.79331         1.44539
O         28.35955        29.24995         1.60039
O         42.39115        54.04423        -0.40825
O         38.84018        43.85995         2.82908
O         36.10975        39.49894         2.55750
O         33.14806        20.51358         2.36198
O         41.61620        28.99571        -2.50733
O         51.62685        23.60546         2.93185
O         35.86888        33.10891         1.76204
O         45.95150        22.18182         2.19576
O         45.70280        31.24848        -2.99488
O         27.90656        24.61259         1.20006
O         55.77930        35.65550         0.74008
O         58.85006        25.48412        -1.22658
O         59.36384        38.04256        -2.53279
O         41.42506        21.08785        -1.61374
O         56.98018        29.01526        -2.19498
O         39.46163        17.78562        -0.59497
O         37.40640        24.65612         1.38920
O         38.66257        52.67743         3.26768
O         45.60338        49.31604         1.33986
O         43.64039        19.79309        -0.90135
O         59.38890        35.48094        -2.58572
O         58.36451        47.48501         1.70120
O         48.94573        30.01072        -2.66305
O         40.69601        24.51857        -2.23420
O         35.92254        48.32917         3.25562
O         30.74583        46.34385         2.20652
O         51.40382        34.58218        -2.33470
O         32.79883        32.44964        -1.60834
O         53.93685        43.17385        -2.38637
O         54.98011        26.97014        -2.27454
H         55.70163        27.50038        -2.69031
O         42.17010        37.47032        -2.68404
H         42.68753        38.23837        -3.04244
O         42.17213        33.16627        -2.85881
H         42.86370        32.71506        -3.38942
O         56.22661        24.49813        -1.32230
H         57.07153        24.73870        -1.77197
O         35.46866        27.24838         2.08269
H         36.32436        27.67979         2.29724
O         55.71065        43.68998         1.39283
H         55.84678        44.57046         1.80690
O         27.11369        30.62434        -2.10592
H         26.37286        30.10319        -2.49129
O         25.19778        27.63422        -3.04703
H         24.67401        27.34227        -3.82559
O         52.23290        32.99386         0.88703
H         53.02695        32.62886         1.33289
O         51.29235        51.25038        -2.88967
H         50.49085        51.77402        -3.12478
O         39.45717        30.57630         1.71802
H         39.89914        31.41355         2.00700
O         40.89227        41.18571         2.29377
H         40.67572        41.97008         2.84441
O         44.40531        22.01603        -1.88170
H         43.79870        21.31961        -2.22903
O         43.78514        39.65412        -2.78593
H         43.30281        40.49905        -2.97079
O         50.00710        35.86708         0.85422
H         50.81071        36.32782         1.17780
O         42.24634        46.36385         2.44584
H         41.59833        46.73259         3.08373
O         52.29866        26.00906         2.27173
H         51.82854        25.50721         2.97942
O         30.00518        41.56250         2.56990
H         30.72974        41.12839         3.06937
O         48.58362        52.75681        -2.51654
H         47.72168        52.36768        -2.77937
O         51.53609        30.84453        -2.94626
H         50.69713        30.46131        -3.30162
O         27.08148        35.31804        -2.37100
H         27.90276        34.80985        -2.54670
O         41.69065        56.28739         3.67248
H         41.74211        57.17650         4.08553
O         38.02744        50.06534         3.89313
H         38.12862        50.99532         4.20037
O         44.53557        46.16165        -2.40011
H         45.33747        45.97053        -2.95173
O         51.72360        24.56386        -1.03266
H         51.16142        24.85216        -1.78182
O         37.44416        22.72796        -1.70776
H         37.37093        21.78051        -1.94496
O         29.03736        51.27909         1.18175
H         29.74571        51.76269         1.65639
O         48.73368        42.29680        -3.11490
H         49.49485        42.81113        -3.45989
O         23.04107        37.69970        -2.54197
H         23.11958        38.66770        -2.68237
O         34.77498        53.21758         3.08619
H         34.63880        52.31337         3.44351
O         28.80398        50.06156        -2.24269
H         28.10474        49.55770        -2.70999
O         34.43059        30.51979        -1.94646
H         34.07070        31.29803        -2.43373
O         38.13752        35.96937         2.15921
H         37.84889        35.14477         2.60412
O         40.90345        32.91494         1.51568
H         40.88521        33.84123         1.84350
O         60.25802        42.25269        -1.99572
H         59.63138        41.78636        -2.58994
O         47.22562        46.11618        -3.04506
H         47.38848        47.06783        -3.27036
O         37.48770        37.03944        -1.27840
H         37.65218        37.88577        -1.74367
O         22.84625        28.21472         0.45587
H         22.79775        28.99006         1.05383
O         23.34890        31.67659        -3.01747
H         24.11465        32.26836        -3.17931
O         39.58023        56.39031        -0.07342
H         38.86188        55.87708        -0.49995
H         23.73826        23.94311        -3.44882
H         21.66246        25.22167        -3.80683
H         21.22124        27.32468        -2.55238
H         20.82424        29.03511        -1.14118
H         20.87139        31.40139        -1.56039
H         20.91991        33.35382        -1.45510
H         20.92642        35.79528        -1.25664
H         20.91825        37.63517        -0.40083
H         20.98038        40.05019        -0.04737
H         20.99269        41.96426        -0.65231
H         21.06077        44.38579        -0.83084
H         21.14032        46.26250        -1.12192
H         23.39571        49.90816        -1.19688
H         21.25258        48.71116        -1.36057
H         25.53094        23.00156        -3.13054
H         25.00476        50.82962        -0.77062
H         27.41279        21.69040        -2.29155
H         27.13730        51.98501        -0.77038
H         30.16117        19.08252        -0.12644
H         28.31817        20.47524        -0.92862
H         31.20023        53.77016        -1.26800
H         29.02803        52.67435        -1.46051
H         31.95794        18.02768         0.44133
H         32.50671        54.86418        -0.35832
H         34.02980        16.99945         1.04217
H         34.41907        56.16589         0.34585
H         37.71420        14.99933         2.37976
H         35.60477        16.18630         2.15530
H         37.96782        58.39965         1.23022
H         35.82287        57.25498         1.21845
H         39.36035        13.93455         2.12217
H         39.56756        59.28683         2.00695
H         43.61520        14.18633         2.63560
H         41.51784        12.89368         2.70441
H         43.84239        59.21746         2.11918
H         41.72471        60.39271         2.53458
H         45.28629        15.11515         2.27979
H         45.47716        58.23038         1.76007
H         47.31383        16.43442         2.31893
H         47.43522        57.10493         0.88779
H         51.01031        18.72152         2.16745
H         48.97258        17.39354         2.09995
H         50.96870        55.15211        -0.35907
H         48.90522        56.31596         0.06029
H         52.55349        19.78550         2.47976
H         52.58321        54.22102        -0.57147
H         54.62142        21.03760         2.34695
H         54.64495        52.99141        -0.72393
H         58.34269        23.27646         2.07846
H         56.20242        22.21969         2.66015
H         58.27983        50.84204        -0.08996
H         56.23854        52.05008        -0.62854
H         60.08535        23.69321         1.23798
H         59.98059        49.87904         0.02669
H         62.17321        24.94363         0.88819
H         62.17068        27.25881         0.11736
H         62.16696        29.11483        -0.11851
H         62.15643        31.51561        -0.41677
H         62.15060        33.37454        -0.54581
H         62.21381        35.76381        -0.84188
H         62.20968        37.73792        -0.85220
H         62.10085        40.13996        -0.51329
H         61.93494        41.81647         0.49518
H         61.83461        44.17737         1.11791
H         61.97905        46.14843         0.70252
H         62.01344        48.58926         0.48253
