         663
 CSIRO Nanostructure Databank - Neutral Graphene Oxide Data Set
C          5.88906        31.93374        -0.27529
C          6.00978        33.27105        -0.41607
C          8.30729        27.54713        -0.10172
C          8.24468        28.96311         0.03754
C          7.06468        29.68985        -0.13786
C          8.25419        31.81090         0.71498
C          6.99075        31.09893         0.25123
C          8.28494        33.34787         0.81781
C          7.17971        34.02859         0.01223
C          8.39585        36.17789         0.35811
C          7.25460        35.36448        -0.20848
C          8.54507        37.53752        -0.26895
C         10.83369        23.21499        -0.00684
C         10.74549        24.59374         0.59251
C          9.54657        25.38963         0.12314
C         10.74538        27.52580         0.16627
C          9.51889        26.79769         0.09642
C         10.72065        28.97196        -0.00254
C          9.47436        29.71130         0.29805
C         10.81023        31.77313         0.92061
C          9.51544        31.05654         0.55981
C         10.82579        33.24764         0.58705
C          9.63260        33.98790         0.52275
C         10.92285        36.05927         0.21990
C          9.67846        35.37930         0.31978
C         10.98010        37.46123        -0.05548
C          9.75035        38.15282        -0.39908
C         11.07977        40.29358        -0.56094
C          9.84635        39.53785        -0.99805
C         11.07592        41.67674        -0.60096
C         13.29244        18.97011        -0.89932
C         13.28891        20.44368        -0.54034
C         12.08802        21.14263        -0.46114
C         13.30452        23.25237        -0.01627
C         12.03957        22.54192        -0.13893
C         13.33247        24.65530         0.13375
C         12.07127        25.36419         0.49609
C         13.27468        27.57702        -0.03065
C         12.03363        26.85042         0.32664
C         13.26992        28.92862        -0.09327
C         12.01871        29.71614        -0.03869
C         13.27224        31.76988         0.48761
C         12.07004        31.10245         0.42979
C         13.31150        33.19374         0.64177
C         12.07882        33.91790         0.54973
C         13.37920        36.01444         0.52072
C         12.13046        35.33036         0.40900
C         13.40034        37.42481         0.33009
C         12.22769        38.13842        -0.02029
C         13.44847        40.31905         0.04850
C         12.27300        39.58822        -0.20449
C         13.43871        41.74019         0.06257
C         12.23271        42.43009        -0.25972
C         13.34390        44.56504         0.14684
C         12.21472        43.84775        -0.21724
C         13.23392        46.06885         0.25551
C         15.81162        14.59934        -0.63282
C         15.65732        15.98878        -0.21753
C         14.53174        16.83468        -0.61273
C         15.75264        18.92806        -0.16281
C         14.54235        18.20672        -0.48119
C         15.76491        20.39514        -0.27276
C         14.52137        21.12659        -0.38810
C         15.74610        23.28038        -0.17467
C         14.52950        22.55470        -0.20255
C         15.77571        24.68384        -0.12078
C         14.53853        25.37056        -0.02823
C         15.79975        27.55904        -0.32075
C         14.49501        26.80997        -0.47284
C         15.79498        28.96245        -0.31383
C         14.51025        29.68222        -0.30176
C         15.88808        31.59417         0.62719
C         14.54281        31.12460         0.06457
C         15.75712        33.04555         1.20989
C         14.56289        33.86306         0.73102
C         15.77330        35.98361         1.28381
C         14.57341        35.26540         0.79272
C         15.80095        37.46572         1.16227
C         14.69041        38.13429         0.42416
C         15.85122        40.39648         0.90428
C         14.72766        39.63248         0.30496
C         15.80356        41.76138         0.87780
C         14.61139        42.47516         0.42363
C         15.76117        44.65788         0.74424
C         14.55475        43.88431         0.47289
C         15.73753        46.07482         0.62636
C         14.56041        46.78321         0.33886
C         15.81665        48.89546         0.18203
C         14.59769        48.17753         0.17137
C         15.78986        50.35154        -0.22073
C         18.38088        10.33742        -0.64639
C         18.32881        11.74935        -0.12297
C         17.07702        12.49260        -0.51198
C         18.27584        14.63421        -0.22105
C         17.02131        13.88891        -0.43075
C         18.25273        16.04815        -0.09672
C         16.99052        16.76926         0.10681
C         18.22186        18.92591         0.00443
C         16.95990        18.23235         0.00165
C         18.18998        20.41231         0.30449
C         16.94728        21.09548        -0.18079
C         18.21270        23.30122         0.22751
C         17.03674        22.57258        -0.47481
C         18.27790        24.75490        -0.19931
C         17.05696        25.41075        -0.24161
C         18.21942        27.56360        -0.66135
C         17.02719        26.85335        -0.38082
C         18.07454        28.93954        -0.91950
C         16.97798        29.70983        -0.52139
C         18.36996        31.89869         0.09710
C         17.03042        31.25221        -0.37381
C         18.32829        33.17308         0.62386
C         17.10581        33.79619         1.18424
C         18.33918        36.09417         1.15032
C         17.09721        35.28869         1.35372
C         18.28422        37.53522         1.34254
C         17.08309        38.20621         1.29223
C         18.21655        40.37083         1.89960
C         16.88779        39.63566         1.74596
C         18.22753        41.88444         1.71437
C         16.86607        42.59398         1.58021
C         18.22840        44.63853         0.85641
C         16.96330        43.98335         1.01432
C         18.23788        46.05821         0.75463
C         16.97473        46.83481         1.01844
C         18.26957        48.94782         0.45801
C         17.01733        48.24732         0.48070
C         18.30378        50.35781         0.25332
C         17.08978        51.08782         0.01596
C         18.34584        53.19533        -0.00959
C         17.11661        52.46036        -0.09090
C         18.37339        54.59011        -0.14425
C         20.85063         6.23908        -1.89320
C         20.77600         7.56779        -1.45207
C         19.59802         8.30186        -1.24076
C         20.85036        10.33257        -0.38334
C         19.58573         9.67907        -0.80507
C         20.84661        11.77780        -0.11708
C         19.58892        12.49271        -0.61744
C         20.72222        14.70581        -0.24969
C         19.52035        13.97021        -0.29925
C         20.69698        16.11874        -0.25045
C         19.44911        16.79613        -0.20242
C         20.70449        18.97513        -0.45758
C         19.41236        18.23988        -0.16091
C         20.69388        20.36782         0.18700
C         19.42032        21.09514        -0.29263
C         20.63847        23.22857        -0.44434
C         19.48549        22.58408        -0.08243
C         20.76347        24.69733        -0.43476
C         19.56570        25.41785        -0.40624
C         20.87829        27.67416        -0.47416
C         19.55419        26.89292        -0.69590
C         20.94535        29.13670        -0.18069
C         19.93229        30.02762        -0.58921
C         20.83490        31.87220         0.64201
C         19.69553        31.28187        -0.00887
C         20.81671        33.25090         0.95244
C         19.59339        34.02177         0.54642
C         20.79179        36.12166         1.39358
C         19.54395        35.43215         1.09620
C         20.77615        37.50764         1.65049
C         19.54432        38.25052         1.57776
C         20.70635        40.45254         2.11517
C         19.49034        39.61810         1.79922
C         20.63602        41.67503         1.19238
C         19.48335        42.47299         1.12854
C         20.58048        44.61654         0.26212
C         19.43070        43.86489         0.67357
C         20.61699        46.02005         0.40384
C         19.45136        46.76851         0.64855
C         20.72519        48.91980         0.56916
C         19.49425        48.22931         0.61356
C         20.77391        50.32990         0.42050
C         19.54912        51.05807         0.29306
C         20.81444        53.18540         0.20341
C         19.57199        52.47495         0.15820
C         20.81804        54.59171         0.09256
C         19.59799        55.30907        -0.10411
C         20.83106        57.44680        -0.42542
C         19.60980        56.71576        -0.29724
C         20.83564        58.83968        -0.74511
C         23.39134         3.56974        -2.69440
C         22.16810         4.23905        -2.60608
C         23.32941         6.17515        -1.71538
C         22.10919         5.56002        -2.09022
C         23.28679         7.49600        -1.01580
C         22.06173         8.34624        -1.37706
C         23.24057         9.85916         0.17362
C         21.98602         9.52817        -0.43946
C         23.23146        12.00725         0.59850
C         21.95112        12.56789         0.20522
C         23.19071        14.66091        -0.14730
C         21.98675        13.99788        -0.08718
C         23.21597        16.11982        -0.31734
C         21.94231        16.86160        -0.17026
C         23.18323        18.96401         0.29529
C         21.95185        18.22554        -0.09692
C         23.22913        20.50007         0.30888
C         21.93459        21.10221        -0.22150
C         23.65859        23.42465        -0.38977
C         21.77705        22.35464        -0.73505
C         23.38768        24.75488         0.03892
C         22.13909        25.46189        -0.54000
C         23.29699        27.58385         0.37271
C         21.98396        26.83005         0.17835
C         23.28170        28.96100         0.59791
C         22.05618        29.71810         0.47012
C         23.22948        31.77869         1.20402
C         22.03882        31.11276         0.77506
C         23.18935        33.15173         1.49436
C         21.99086        33.91525         1.35763
C         23.25916        36.03388         1.68082
C         22.00340        35.35561         1.52936
C         23.28925        37.47396         1.72250
C         22.02736        38.17145         2.21573
C         23.31713        40.38104         1.53692
C         22.06124        39.69636         2.03050
C         23.12179        41.58566         0.68088
C         21.81818        41.93749         0.42285
C         23.05826        44.51569        -0.19879
C         21.78036        43.98863        -0.23489
C         23.07665        46.01828        -0.30697
C         21.93758        46.68141         0.42494
C         23.24784        48.85049         0.22495
C         21.99376        48.16505         0.59622
C         23.27465        50.26000         0.21606
C         22.03572        51.03409         0.35707
C         23.32381        53.16929         0.22834
C         22.04253        52.43288         0.30974
C         23.31518        54.60224        -0.18702
C         22.09548        55.36988         0.29133
C         23.37031        57.46512        -0.37320
C         22.05011        56.76961        -0.24617
C         23.28962        58.86289        -0.90960
C         22.04614        59.54258        -0.99413
C         23.25613        61.55440        -1.67339
C         22.05521        60.91441        -1.38053
C         24.57749         4.15994        -2.25712
C         25.76097         6.08703        -1.20263
C         24.57161         5.48433        -1.74066
C         25.82074         7.44635        -0.80751
C         24.61035         8.29363        -1.16659
C         25.68857        10.23698         0.19073
C         24.48020         9.46375        -0.22776
C         25.65307        11.71203        -0.21903
C         24.44794        12.53448         0.24227
C         25.76736        14.70310        -0.22322
C         24.49622        14.03179         0.27119
C         25.80426        16.06642        -0.11667
C         24.52232        16.82980        -0.15538
C         25.78370        18.97155         0.64918
C         24.47669        18.21671         0.40528
C         25.81720        20.37145         0.04155
C         24.55536        21.11592        -0.18504
C         25.67919        23.11748         0.95514
C         24.63958        22.58827         0.06715
C         25.63631        24.65954         1.15299
C         24.45959        25.40962         0.64045
C         25.73957        27.48577         0.85075
C         24.51383        26.84898         0.64347
C         25.80011        28.96457         0.56671
C         24.50200        29.67933         0.87674
C         25.72707        31.74359         1.43799
C         24.48135        31.03006         1.19229
C         25.68443        33.10819         1.71818
C         24.40865        33.83310         2.04027
C         25.72968        35.97818         1.64396
C         24.47792        35.31138         1.73016
C         25.69995        37.37674         1.31043
C         24.48611        38.11991         1.46110
C         25.49630        40.03197         0.19095
C         24.64642        39.63605         1.42838
C         25.56896        41.54185         0.05970
C         24.23124        42.20404        -0.19946
C         25.49420        44.42983        -0.16094
C         24.28451        43.74826        -0.17715
C         25.56025        45.89256        -0.19437
C         24.40121        46.66151        -0.07792
C         25.66778        48.75124        -0.24995
C         24.42856        48.09178        -0.01089
C         25.69800        50.17585        -0.30286
C         24.50510        50.90195        -0.05164
C         25.67506        52.99497        -0.78035
C         24.56191        52.37204        -0.01185
C         25.60404        54.43009        -1.14874
C         24.39023        55.20144        -0.76132
C         25.70450        57.32041        -1.27659
C         24.34350        56.63872        -1.23093
C         25.71724        58.72061        -1.32363
C         24.50217        59.49226        -1.28112
C         24.47176        60.86306        -1.63879
C         26.94825         8.06686        -0.27942
C         28.20715        10.31640        -0.18589
C         26.98496         9.51199         0.06469
C         28.22444        11.66953        -0.17254
C         26.96880        12.47828         0.12485
C         28.30653        14.63366        -0.38289
C         26.99356        13.86822        -0.57248
C         28.32064        16.12337        -0.14203
C         27.02930        16.84715        -0.01317
C         28.25958        18.91604         0.63179
C         27.01499        18.18134         0.27840
C         28.35025        20.39204         0.23756
C         27.04983        21.13421         0.41745
C         28.18237        23.07265         1.47095
C         26.97790        22.39309         0.93296
C         28.14762        24.61041         1.65899
C         26.91788        25.36846         1.31099
C         28.21770        27.46790         1.25681
C         26.95563        26.75055         1.12425
C         28.22474        28.87486         1.24909
C         27.02585        29.63754         1.11413
C         28.16965        31.70283         1.83086
C         26.98915        31.02059         1.37365
C         28.00922        33.00165         2.28379
C         26.89339        33.83913         1.97403
C         28.27094        35.99484         1.74061
C         26.96968        35.25248         1.85612
C         28.17765        37.40733         1.15380
C         26.88328        38.06718         0.89715
C         28.02815        40.12603         0.10897
C         26.84964        39.38035         0.39460
C         28.02368        41.52113        -0.05976
C         26.74947        42.22735         0.01748
C         28.02882        44.39639        -0.38440
C         26.79094        43.72925         0.19071
C         28.03321        45.81140        -0.52163
C         26.82598        46.56525        -0.34623
C         28.08417        48.67131        -0.73320
C         26.85764        47.98631        -0.44428
C         28.09598        50.10816        -0.83955
C         26.93545        50.83506        -0.61385
C         28.04603        52.88607        -1.61753
C         27.02751        52.34658        -0.59729
C         28.05812        54.39933        -1.55308
C         26.89910        55.13323        -1.38976
C         26.88164        56.56353        -1.39428
C         29.52174        12.40648        -0.48139
C         30.68319        14.55646         0.21361
C         29.53660        13.87475        -0.09448
C         30.70830        15.98699         0.46218
C         29.55057        16.71965         0.41203
C         30.80373        18.89907         0.79182
C         29.52796        18.15401         0.77812
C         30.78310        20.30336         0.92258
C         29.54099        21.06384         0.87486
C         30.71843        23.05806         1.72485
C         29.47868        22.36194         1.32139
C         30.70169        24.59466         1.84109
C         29.43641        25.33920         1.61576
C         30.72698        27.43212         1.48629
C         29.45129        26.71793         1.43583
C         30.75496        28.81645         1.51003
C         29.51183        29.59701         1.33587
C         30.86298        31.72641         2.10377
C         29.51816        31.08632         1.62292
C         30.93916        33.20309         1.72299
C         29.91376        34.05188         2.08836
C         30.67541        35.97536         0.87181
C         29.59449        35.31770         1.52330
C         30.62397        37.29443         0.46819
C         29.32577        37.95690         0.37650
C         30.54751        40.11843        -0.29867
C         29.28046        39.38264        -0.09217
C         30.47716        41.53467        -0.51613
C         29.24166        42.22809        -0.37499
C         30.44821        44.35346        -0.87017
C         29.22229        43.66277        -0.54793
C         30.45476        45.76903        -0.99512
C         29.25320        46.50650        -0.81954
C         30.51764        48.62937        -1.17137
C         29.27149        47.93209        -0.91325
C         30.53849        50.03617        -1.24756
C         29.34940        50.81090        -1.15033
C         29.35819        52.17689        -1.39965
C         32.02192        16.64016         0.85387
C         33.21914        18.85285         0.92529
C         32.01782        18.16228         0.83112
C         33.24436        20.27327         1.06521
C         32.00801        20.99910         1.13083
C         33.20969        23.11300         1.44137
C         32.00429        22.39474         1.41145
C         33.21675        24.55884         1.50910
C         31.98506        25.29301         1.60148
C         33.21325        27.39454         1.27677
C         31.97815        26.68902         1.47672
C         33.22100        28.80472         1.15704
C         32.00030        29.54916         1.43208
C         33.14999        31.59307         0.82748
C         32.02938        30.93092         1.53031
C         33.09959        33.02055         0.44183
C         32.19310        33.90123         1.25762
C         33.01578        35.81652        -0.23280
C         31.88334        35.18053         0.51030
C         32.96059        37.30613        -0.52482
C         31.89717        38.06399         0.29313
C         32.99595        40.12583        -0.62216
C         31.76562        39.45707        -0.27050
C         32.93695        41.52445        -0.90790
C         31.70000        42.22781        -0.81605
C         32.89821        44.33080        -1.31516
C         31.67282        43.63661        -1.00911
C         32.87727        45.73800        -1.45524
C         31.68947        46.46703        -1.27860
C         31.69446        47.87931        -1.35645
C         34.45128        20.98760         1.15837
C         35.66967        23.10615         1.22152
C         34.45516        22.39681         1.27572
C         35.69756        24.52527         1.23756
C         34.43948        25.25076         1.35356
C         35.67405        27.37281         1.02513
C         34.45437        26.67687         1.23061
C         35.66436        28.75836         0.77507
C         34.43677        29.47465         0.86194
C         35.62803        31.59854         0.50071
C         34.44476        30.89513         0.68520
C         35.60585        33.11850         0.52742
C         34.35910        33.62997        -0.18573
C         35.49677        35.80484        -0.55147
C         34.34090        35.14724        -0.24788
C         35.42703        37.21556        -1.12128
C         34.33729        37.97640        -0.34820
C         35.43374        40.11137        -1.07201
C         34.22773        39.43712        -0.71449
C         35.37791        41.49921        -1.31319
C         34.15522        42.21629        -1.23398
C         34.10551        43.61240        -1.44396
C         36.90666        25.20065         1.11114
C         38.07160        27.24758         0.21332
C         37.01195        26.68918         1.18500
C         38.09223        28.76447         0.22356
C         36.88278        29.47319         0.45735
C         38.08615        31.59547         0.11456
C         36.87203        30.89224         0.36358
C         38.10876        33.07474         0.10546
C         36.83707        33.80313        -0.01900
C         37.99951        35.83119        -0.84045
C         36.78151        35.10528        -0.46462
C         37.93240        37.24566        -1.08627
C         36.73419        37.97369        -1.06318
C         36.67203        39.37391        -1.14102
C         39.25295        29.46094        -0.08760
C         40.45746        31.58413        -0.60475
C         39.27196        30.88061        -0.14159
C         40.48794        32.92581        -0.80458
C         39.36683        33.78732        -0.39268
C         39.21250        35.15580        -0.89980
O         29.63046        30.60940         0.25376
O         23.17899        10.76783         1.23013
O         30.70113        23.72726         3.02399
O         27.99131        23.68050         2.78218
O         31.98029        35.05526        -0.95555
O         16.14321        16.22594         1.15026
O         28.50706        15.57833        -1.50716
O         25.27891        20.51978        -1.31461
O         15.41467        36.85131         2.44056
O         20.44431        27.28550        -1.79142
O         28.70237        18.52936         1.97417
O         32.47962        32.09131        -0.47946
O         19.08403        29.61390        -1.61118
O         28.42415        37.19990         2.58317
O         29.01889        33.56572         3.05580
O         15.32274        32.90649         2.54710
O         23.62716        18.36292         1.58284
O         21.58809        42.69803        -0.74043
O         26.36161         9.86658         1.41959
O         17.33555        34.40920         2.49801
O         23.94682        16.67363        -1.50395
O         15.15039        38.75389        -0.82484
O         29.03482        38.26059        -1.04085
O         14.47445        30.73468        -1.34013
O         25.28046        23.70622         2.21609
O         22.21050        47.23953         1.74340
O          7.31156        31.27655         1.70737
O         39.05277        33.67192         1.05721
O         18.29100        41.29267         3.03627
O         25.29196        53.36079        -2.14984
O         22.83847        22.94933        -1.42054
O         22.96418        40.39857         2.97215
O         12.23172        26.20218         1.69474
O         24.30228        52.92851         1.32342
O         11.27034        29.49921        -1.30840
O         18.36606        11.69122         1.33650
H         18.19286        12.59374         1.67869
O         23.80990        56.62749        -2.57744
H         24.39555        56.07078        -3.13218
O         22.44073        25.69396        -1.92315
H         22.53047        24.81718        -2.35696
O         18.13240        20.56622         1.75357
H         19.01247        20.27835         2.11155
O         25.45349        11.58856        -1.64724
H         25.66603        12.44584        -2.08732
O         14.30643        26.67767        -1.93764
H         14.28542        27.58423        -2.31490
O          9.87777        39.41779        -2.43867
H         10.70917        38.96249        -2.68566
O         19.23927        20.92268        -1.71755
H         20.00985        21.30856        -2.18492
O         25.88821        19.24595         2.06923
H         26.10601        18.41511         2.54183
O         17.97231        23.29618         1.65486
H         17.96953        22.34673         1.95032
O         37.52314        27.02254         2.52474
H         36.89715        26.65076         3.18173
O         32.36861        38.25045         1.67611
H         31.60505        38.53271         2.22359
O         26.93258        12.71845         1.55632
H         26.85639        11.82858         1.98105
O         32.39305        16.20189         2.17569
H         31.75154        16.57901         2.81277
O         19.60008        12.43037        -2.07446
H         19.40271        11.50339        -2.33149
O         20.67354        20.16677         1.61998
H         21.54574        20.47774         1.98577
O         21.48596        26.55902         1.51939
H         22.18252        26.08593         2.02237
O         24.88152        39.44862        -0.97921
H         24.54580        40.18373        -1.55102
O         32.56766        37.45181        -1.91000
H         31.89979        36.74760        -2.08682
O          8.07958        36.41173         1.76937
H          8.01602        35.51996         2.19708
O         16.89806        46.98172         2.49203
H         17.75061        47.36444         2.79139
O         30.92881        31.58489         3.54379
H         30.35656        32.28602         3.93102
O         16.76663        31.88448        -1.64070
H         17.25796        31.40002        -2.33603
O         17.26705        22.73166        -1.90839
H         16.62610        22.16540        -2.38627
O         22.27277        55.50302         1.74673
H         23.08755        56.04853         1.87104
O         39.34475        26.71481         0.56480
H         39.42809        26.81769         1.53813
O         19.77668        34.27253        -0.90492
H         19.82829        33.39759        -1.34825
O         14.69626        51.02597         0.41504
H         14.81673        50.95760         1.38421
O         12.12216        18.32000        -0.39548
H         12.18400        18.29103         0.58125
O         24.85888         8.70290        -2.52158
H         24.05947         9.17269        -2.85443
O         24.28288        33.75194         3.50960
H         25.01506        34.27655         3.89847
O         21.97553        37.92926         3.64957
H         22.44893        38.66902         4.08930
O         27.50125        52.74280         0.71599
H         26.80858        52.51842         1.37411
O         25.94032        29.05798        -0.90500
H         26.15722        29.98988        -1.12243
O         16.33535        42.80796         2.91695
H         16.68618        42.07086         3.47670
O         16.27805        39.55972         3.06830
H         16.03851        38.62557         3.26469
O         20.59900        40.89636         3.48136
H         21.48229        41.23911         3.74477
O         27.65017        52.49926        -2.96449
H         26.72726        52.83027        -3.09939
O         10.47254        24.36576         2.01822
H         10.93782        25.08978         2.50418
O         20.83191        19.11367        -1.90649
H         20.89547        18.21145        -2.28556
O         29.71283        12.36696        -1.91115
H         28.91429        12.76736        -2.32373
O         34.81212        37.88082         1.01274
H         34.14015        38.28050         1.61330
O         26.94254        13.64179        -2.01373
H         27.21627        14.49691        -2.42832
O         16.16640        30.75616         1.76677
H         15.87217        31.30473         2.55473
O         28.61375        20.38834        -1.20473
H         27.75403        20.32333        -1.67499
O         10.86177        31.70808         2.38748
H         10.12649        32.25880         2.73574
O         23.12688         7.18002         0.39558
H         23.88279         6.61865         0.66972
O         35.50834        33.50972         1.93461
H         36.40371        33.46328         2.33397
O         23.93822        41.87329        -1.60209
H         23.00467        42.15743        -1.76723
O         22.24816         8.89992        -2.71976
H         21.42493         9.37327        -2.96387
O         32.90395        34.28526         2.47057
H         33.85368        34.00874         2.41303
O         26.92642        43.90466         1.64846
H         26.95980        44.86885         1.82723
O         35.13029        37.10279        -2.52775
H         34.14671        37.06408        -2.63440
O          8.03665        33.65923         2.22499
H          7.39087        32.97908         2.53993
O         23.97840        57.52588         0.96827
H         23.56958        58.28052         1.44324
O         22.76943        46.27862        -1.73223
H         23.49878        45.89991        -2.26818
O         34.46663        33.17940        -1.55016
H         33.59683        32.78193        -1.79443
O         24.58671        14.32519         1.73352
H         25.37030        13.81411         2.05826
O         12.43407        46.59588        -0.81236
H         12.88017        46.39313        -1.65971
O         25.44782        40.01976         2.56383
H         24.84724        40.08375         3.34011
O         23.22238        20.88703         1.72529
H         23.76728        20.21260         2.20577
H          4.98202        31.42199        -0.63022
H          5.18795        33.84573        -0.87047
H          7.37142        26.99555        -0.27492
H          6.15836        29.19671        -0.51935
H          6.42936        35.88424        -0.72145
H          7.62521        38.08205        -0.53403
H          9.89223        22.66246        -0.15049
H          8.59607        24.84247         0.02470
H          8.92789        40.12625        -0.75183
H         10.15642        42.21092        -0.88282
H         13.22098        18.90771        -2.02374
H         11.14293        20.59506        -0.59411
H         11.28834        44.38684        -0.46308
H         12.67052        46.30136         1.20358
H         14.94072        14.06758        -1.04491
H         13.64598        16.35198        -1.05382
H         13.66578        48.71523        -0.05416
H         15.57645        50.39545        -1.32758
H         17.43929         9.81042        -0.86686
H         16.14486        11.92512        -0.65952
H         16.17801        53.00750        -0.26249
H         17.43252        55.13989        -0.29456
H         19.92234         5.67768        -2.08231
H         18.62413         7.80873        -1.38751
H         18.65480        57.24389        -0.43299
H         19.87648        59.36825        -0.84430
H         23.41600         2.54653        -3.09561
H         21.24258         3.73751        -2.92329
H         23.24747        62.61534        -1.96104
H         21.10419        61.46127        -1.44902
H         25.52284         3.60114        -2.30760
H         26.65958         5.45794        -1.10048
H         26.67264        59.24598        -1.47581
H         25.40554        61.37438        -1.91226
H         27.87261         7.48118        -0.14274
H         29.13963         9.77043        -0.40330
H         29.00309        54.93355        -1.73956
H         27.84154        57.09355        -1.49474
H         30.38922        11.87231        -0.02011
H         31.62595        14.00243         0.33840
H         31.49067        50.54435        -1.46213
H         30.30451        52.67877        -1.65517
H         32.82418        16.26423         0.16616
H         34.17044        18.30099         0.93099
H         33.81252        46.27232        -1.67771
H         32.64123        48.40114        -1.55983
H         35.40936        20.45136         1.09390
H         36.61418        22.55305         1.11350
H         36.29810        42.04398        -1.57218
H         35.03087        44.15724        -1.68242
H         37.84157        24.62444         1.03917
H         37.83437        26.90290        -0.82959
H         38.88503        37.78841        -1.20058
H         37.60708        39.94730        -1.24809
H         40.17525        28.89884        -0.29555
H         41.32593        30.97284        -0.89278
H         41.36183        33.39625        -1.27992
H         40.09917        35.66657        -1.30696
