         210
 CSIRO Nanostructure Databank - Neutral Graphene Oxide Data Set
C         30.49534        31.78948        -0.98272
C         30.63101        33.00667        -1.25367
C         30.75373        36.06325        -1.83994
C         30.80777        37.30600        -2.00311
C         30.82302        40.41042        -2.12189
C         30.74340        41.66415        -2.04809
C         32.71743        29.07673         0.19595
C         31.64514        29.62242        -0.16382
C         32.85325        31.68362        -0.48233
C         31.57650        30.98135        -0.54914
C         32.93777        33.09534        -0.79339
C         31.76690        33.83813        -1.19082
C         33.03991        35.96776        -1.24228
C         31.82259        35.22991        -1.43107
C         33.09130        37.39408        -1.43169
C         31.92161        38.14805        -1.82185
C         33.10317        40.33860        -1.60118
C         31.92731        39.57230        -1.88187
C         33.08106        41.75957        -1.50034
C         31.83079        42.47332        -1.67054
C         32.75061        44.39441        -0.54532
C         31.90984        43.84366        -1.28373
C         35.32420        27.53238         0.98679
C         35.21162        28.89001         0.60641
C         34.02477        29.59472         0.27298
C         35.31643        31.66748        -0.04763
C         34.04934        30.98416        -0.09110
C         35.36657        33.07523        -0.33062
C         34.17444        33.80212        -0.69052
C         35.43406        35.96143        -0.71626
C         34.22805        35.23919        -0.89103
C         35.47545        37.38653        -0.82910
C         34.31212        38.09951        -1.23287
C         35.62553        40.30591        -1.01307
C         34.36285        39.56024        -1.46185
C         35.50830        41.72015        -0.60322
C         34.29995        42.49352        -1.02001
C         35.02989        44.32542         0.68408
C         34.13523        43.93731        -0.43795
C         35.14812        45.64341         1.31295
C         37.70835        27.43575         1.11957
C         36.39537        26.91633         1.20631
C         37.69975        28.80613         0.76699
C         36.49303        29.53166         0.53419
C         37.75434        31.65478         0.35293
C         36.51647        30.95341         0.25184
C         37.75819        33.06227         0.17848
C         36.60093        33.75735        -0.21077
C         37.86894        35.93373        -0.00725
C         36.73179        35.19420        -0.66523
C         37.73347        37.38283         0.34216
C         36.65671        38.11755        -0.41915
C         37.83778        40.21189         0.13507
C         36.70133        39.50134        -0.40653
C         37.79877        41.60080         0.33784
C         36.55178        42.30702         0.08638
C         37.52707        44.20411         1.50168
C         36.35997        43.56653         0.83914
C         37.31734        45.31073         2.29436
C         36.00537        45.89640         2.18512
C         40.12772        24.59960         1.49412
C         39.08490        25.29998         1.40715
C         40.20269        27.33538         1.27744
C         38.94094        26.69637         1.28088
C         40.17615        28.85498         1.31576
C         39.04416        29.43191         0.43450
C         40.21460        31.61131         0.57310
C         39.01219        30.94707         0.52042
C         40.26752        33.07211         0.74353
C         38.97966        33.81364         0.51288
C         40.27725        35.96453         0.55493
C         39.02464        35.27350         0.30880
C         40.27797        37.38953         0.51118
C         39.06081        38.09717         0.36520
C         40.27042        40.23430         0.55851
C         39.05573        39.50071         0.38419
C         40.22533        41.65735         0.71511
C         38.98098        42.30926         0.73476
C         40.20258        44.53970         1.23425
C         38.89744        43.76278         1.05780
C         40.35132        45.88417         1.93360
C         39.32230        46.43995         2.71525
C         40.51993        48.46135         2.86651
C         39.49909        47.78211         3.13370
C         42.72155        24.58555         1.49412
C         41.42274        25.15583         1.46074
C         42.69372        27.33150         1.24365
C         41.43713        26.61569         1.34691
C         42.71946        28.77491         1.07096
C         41.50471        29.47377         0.97163
C         42.78019        31.65695         0.57009
C         41.49683        30.87680         0.54501
C         42.75733        33.14106         0.65308
C         41.54504        33.82160         0.65164
C         42.75078        35.97355         0.61285
C         41.50699        35.25553         0.63639
C         42.75057        37.39925         0.54392
C         41.51992        38.11207         0.54553
C         42.72859        40.28885         0.44281
C         41.50318        39.53787         0.56053
C         42.69450        41.68869         0.44182
C         41.47415        42.41218         0.74066
C         42.67223        44.62470         0.57579
C         41.47282        43.78652         0.98642
C         42.76707        45.97835         1.25854
C         41.58314        46.63475         1.74931
C         42.96488        48.60978         2.10530
C         41.69367        48.01255         2.24147
C         43.77610        25.24932         1.37938
C         45.16152        27.34249         1.00878
C         43.94559        26.65050         1.23018
C         45.19739        28.78197         0.88204
C         43.97061        29.47512         0.95928
C         45.26592        31.67212         0.67126
C         44.00451        30.97836         1.14540
C         45.25951        33.08487         0.57898
C         44.00633        33.84304         0.67670
C         45.24435        36.01346         0.67617
C         43.98360        35.24867         0.65979
C         45.22522        37.44293         0.35000
C         43.98534        38.13738         0.38328
C         45.18545        40.25296         0.02664
C         43.96041        39.55150         0.26787
C         45.18760        41.67723        -0.00775
C         43.89304        42.45154        -0.06477
C         45.20017        44.48327         0.53202
C         43.98740        43.85730         0.49895
C         45.32460        45.87849         1.14878
C         44.02452        46.60496         1.26210
C         43.94983        47.93110         1.72101
C         47.51770        27.37744         0.60422
C         46.45124        26.78230         0.87397
C         47.65726        28.78297         0.43639
C         46.43970        29.49126         0.62545
C         47.67626        31.61800         0.13663
C         46.46505        30.93432         0.47951
C         47.66896        33.04815         0.01540
C         46.47732        33.76350         0.29900
C         47.69300        35.94652        -0.14741
C         46.55145        35.22767         0.43299
C         47.66902        37.36832        -0.23880
C         46.43795        38.12238         0.03366
C         47.58048        40.23325        -0.75652
C         46.39342        39.52021        -0.15119
C         47.62172        41.71985        -0.46527
C         46.40906        42.39333        -0.14536
C         47.58841        44.53572        -0.25357
C         46.41200        43.81166         0.05506
C         47.38424        45.93744        -0.03243
C         46.41133        46.60242         0.34980
C         50.09726        28.86567        -0.21318
C         48.85436        29.45290         0.07388
C         50.12832        31.53726        -0.41451
C         48.90234        30.88034        -0.07275
C         50.14410        33.02706        -0.44030
C         48.86130        33.77409        -0.35285
C         49.95913        35.89928        -1.17654
C         48.83075        35.17637        -0.53105
C         49.99039        37.38419        -1.07255
C         48.84660        38.07013        -0.62428
C         50.06272        40.30618        -1.02622
C         48.89763        39.57125        -0.37603
C         50.04073        41.72075        -1.08202
C         48.81333        42.42609        -0.70748
C         50.00435        44.42542        -1.03704
C         48.76916        43.87426        -0.64494
C         51.18613        29.38820        -0.56333
C         52.41098        31.60610        -1.12802
C         51.31504        30.78554        -0.72112
C         52.41672        32.81452        -1.42470
C         51.40070        33.76116        -0.95680
C         52.41723        36.02404        -1.64194
C         51.25419        35.13044        -1.50626
C         52.22933        37.25061        -1.77136
C         51.17166        38.12411        -1.40679
C         52.26887        40.38290        -1.80794
C         51.20355        39.54159        -1.40489
C         52.31352        41.63739        -1.85307
C         51.23119        42.47172        -1.49098
C         51.07081        43.87331        -1.41003
O         35.17614        43.32481         1.71778
O         50.26169        35.32388        -2.51869
O         34.71699        43.71864        -1.73067
O         42.31214        31.12499        -0.69570
O         35.38398        40.00514        -2.42369
O         39.41205        44.63423        -0.01929
O         38.24643        45.73630         3.21054
O         46.15534        35.68563         1.77475
O         51.16729        33.64810         0.45537
O         39.44476        33.51276         1.88640
O         47.44090        40.09368        -2.20152
H         46.56577        40.45068        -2.46084
O         43.61577        42.62659        -1.52571
H         44.39157        43.09036        -1.91047
O         43.91822        31.20938         2.59122
H         44.76096        30.91807         2.99897
O         45.81529        45.70095         2.47701
H         45.83403        46.57495         2.92101
O         37.24820        37.37961         1.74493
H         37.91202        36.89969         2.28609
O         39.85095        29.24673         2.68035
H         40.57597        28.95377         3.27116
O         39.36384        29.05638        -0.92688
H         38.69108        29.44169        -1.52550
O         49.05127        39.73938         1.05879
H         49.87085        39.28389         1.34301
O         37.15259        35.09615        -2.08431
H         36.40009        34.72467        -2.59274
O         42.37682        44.96175        -0.81843
H         42.41936        44.12042        -1.33705
