         600
 CSIRO Nanostructure Databank - Neutral Graphene Oxide Data Set
C         23.07783        27.24405         0.15861
C         23.10006        28.60563        -0.06366
C         23.18476        31.48716        -0.59376
C         23.23451        32.83671        -0.87319
C         23.32609        35.72981        -1.36229
C         23.35748        37.05671        -1.66158
C         23.50432        39.96268        -2.21613
C         23.55075        41.32002        -2.45844
C         23.69369        44.10918        -3.30569
C         23.77007        45.42261        -3.70815
C         25.42337        24.44407         0.96119
C         24.25084        25.13361         0.74554
C         25.44452        27.28932         0.75754
C         24.25145        26.56288         0.57236
C         25.48086        28.68304         0.50519
C         24.29491        29.35619         0.08986
C         25.55766        31.49093        -0.01274
C         24.33736        30.77842        -0.16812
C         25.61250        32.89059        -0.30291
C         24.44107        33.56907        -0.74388
C         25.76029        35.61990        -1.05817
C         24.51870        34.96365        -1.10228
C         25.89927        36.96649        -1.62007
C         24.61411        37.73245        -1.97959
C         25.93396        39.86806        -2.05240
C         24.69355        39.21461        -2.05984
C         25.98750        41.27598        -2.25911
C         24.78846        42.00003        -2.52241
C         26.10612        44.05818        -2.87391
C         24.85377        43.39576        -2.88961
C         26.18356        45.43234        -3.25482
C         25.01266        46.11109        -3.69296
C         26.30822        48.13252        -4.06350
C         25.10509        47.46916        -4.10497
C         27.95405        22.99601         1.21293
C         27.89954        24.42337         1.23249
C         26.66708        25.11227         1.13220
C         27.93389        27.30177         1.14400
C         26.62750        26.59862         1.38668
C         27.93776        28.69885         0.93527
C         26.71895        29.40992         0.64043
C         27.98006        31.53002         0.52879
C         26.75146        30.79987         0.39097
C         28.01006        32.94125         0.31407
C         26.83883        33.61319        -0.13938
C         28.12072        35.73464        -0.31903
C         26.91206        34.99340        -0.49708
C         28.20170        37.12054        -0.73685
C         27.11909        37.73202        -1.36624
C         28.40474        39.89160        -1.51521
C         27.23750        39.08408        -2.02804
C         28.43298        41.28207        -1.75765
C         27.24675        41.97416        -2.19768
C         28.53131        44.07934        -2.34428
C         27.29589        43.35827        -2.46980
C         28.59511        45.46128        -2.69442
C         27.42795        46.13188        -3.19189
C         28.74037        48.20390        -3.48395
C         27.49219        47.49146        -3.59417
C         28.85672        49.55470        -3.90805
C         30.38745        23.00705         1.40679
C         29.14368        22.31950         1.30671
C         30.37205        24.44040         1.40807
C         29.14323        25.14572         1.33106
C         30.38816        27.29610         1.29492
C         29.14682        26.58567         1.26595
C         30.39353        28.71751         1.20544
C         29.17418        29.41457         0.98204
C         30.39749        31.56416         1.00682
C         29.18123        30.83521         0.83286
C         30.37385        32.98096         0.94631
C         29.21279        33.68057         0.54590
C         30.44146        35.85516         0.47964
C         29.25424        35.10367         0.27039
C         30.54914        37.20984         0.04013
C         29.43742        37.85253        -0.55683
C         30.71641        39.98081        -0.65627
C         29.51467        39.23987        -0.92280
C         30.78267        41.36660        -0.99748
C         29.63495        42.02422        -1.52367
C         30.90238        44.15058        -1.65556
C         29.68922        43.41811        -1.84446
C         30.96246        45.53457        -1.99455
C         29.81112        46.18288        -2.53689
C         31.08782        48.29911        -2.71554
C         29.87770        47.56250        -2.91946
C         31.14947        49.67184        -3.09317
C         30.02064        50.26268        -3.72303
C         32.87320        20.19097         1.47034
C         31.67541        20.87367         1.46692
C         32.86319        23.01412         1.56853
C         31.62665        22.29457         1.47879
C         32.84880        24.44544         1.58014
C         31.61458        25.16068         1.48099
C         32.85350        27.30469         1.53396
C         31.61890        26.58162         1.44216
C         32.85144        28.73803         1.48925
C         31.62613        29.44731         1.31960
C         32.85098        31.60089         1.42307
C         31.62299        30.86885         1.26705
C         32.85162        33.02072         1.47080
C         31.56346        33.71992         1.38556
C         32.87488        35.93025         1.20005
C         31.57464        35.24303         1.17881
C         32.88924        37.29593         0.86561
C         31.76754        37.94844         0.27172
C         33.06913        40.07533         0.12692
C         31.84724        39.32990        -0.07493
C         33.13807        41.45905        -0.24836
C         31.99497        42.10738        -0.79247
C         33.26337        44.23201        -0.92210
C         32.05584        43.49513        -1.12526
C         33.31588        45.62815        -1.23893
C         32.16785        46.27472        -1.78024
C         33.39500        48.42653        -1.83356
C         32.22176        47.66582        -2.11361
C         33.42109        49.80555        -2.17463
C         32.33027        50.43363        -2.80288
C         33.52002        52.59092        -2.85726
C         32.39672        51.84746        -3.08403
C         35.38586        18.78873         0.92257
C         35.35675        20.16532         1.38874
C         34.11738        20.87084         1.52247
C         35.31852        23.03146         1.78968
C         34.09953        22.30719         1.63510
C         35.29262        24.42860         1.84792
C         34.07505        25.16163         1.69062
C         35.31047        27.33114         1.75216
C         34.07567        26.59645         1.67431
C         35.30851        28.75796         1.71387
C         34.07686        29.46376         1.59240
C         35.30420        31.61834         1.70190
C         34.07969        30.89237         1.57316
C         35.29739        33.04866         1.69755
C         34.05832        33.75562         1.59710
C         35.30275        35.88727         1.65143
C         34.06401        35.20489         1.54115
C         35.31792        37.35300         1.68497
C         34.05412        38.10193         1.24057
C         35.43165        40.15729         0.88066
C         34.19189        39.46793         0.72722
C         35.50058        41.53386         0.48370
C         34.34831        42.18995        -0.04824
C         35.63097        44.30898        -0.21061
C         34.41455        43.57622        -0.39525
C         35.67651        45.71420        -0.50331
C         34.51547        46.37434        -1.00490
C         35.73295        48.51597        -0.95713
C         34.55196        47.78419        -1.25004
C         35.71147        49.99318        -1.02978
C         34.55373        50.64184        -1.72879
C         35.94686        52.62655        -2.31502
C         34.70817        52.00270        -2.30306
C         36.12113        53.96349        -2.80683
C         37.84124        18.69072         1.30473
C         36.54197        18.09741         0.81595
C         37.80813        20.19795         1.24166
C         36.58926        20.84911         1.51958
C         37.83747        23.01473         1.60399
C         36.60633        22.26147         2.04766
C         37.86670        24.44689         1.89786
C         36.53770        25.19037         2.07144
C         37.77117        27.34463         1.85464
C         36.53974        26.64287         1.87979
C         37.77191        28.77124         1.83979
C         36.53828        29.48184         1.80121
C         37.77940        31.62525         1.87324
C         36.53903        30.90988         1.80185
C         37.77359        33.06126         1.86333
C         36.53857        33.76053         1.77428
C         37.76895        35.91596         1.88457
C         36.53651        35.19196         1.75148
C         37.76943        37.34760         1.85158
C         36.59882        38.07019         1.62115
C         37.85228        40.19059         1.39145
C         36.60794        39.48429         1.35053
C         37.89463        41.54901         1.00880
C         36.72891        42.24600         0.59781
C         38.00535        44.38919         0.44372
C         36.79320        43.64567         0.26286
C         38.05466        45.78289         0.16833
C         36.88148        46.44986        -0.30512
C         38.16126        48.57766        -0.39496
C         36.91729        47.85714        -0.54427
C         38.24869        49.95823        -0.71302
C         37.00102        50.80719        -0.85785
C         38.42465        52.65644        -1.72668
C         37.19404        51.81697        -2.00389
C         38.48563        53.99778        -2.13173
C         37.32197        54.60735        -2.73664
C         40.22100        16.00387         0.08232
C         39.15254        16.63733         0.63781
C         40.18506        18.84888         0.33898
C         39.06377        18.06528         0.68468
C         40.17526        20.28166         0.54371
C         38.99750        20.93446         0.98963
C         40.15365        23.14432         0.76427
C         38.96975        22.38202         1.11828
C         40.16583        24.57657         0.96483
C         39.03474        25.23352         1.51163
C         40.22381        27.37803         1.53551
C         39.00932        26.63782         1.66819
C         40.22809        28.77047         1.75479
C         39.01188        29.48643         1.86250
C         40.25837        31.64329         1.88337
C         39.00717        30.91978         1.90627
C         40.25552        33.07429         1.90120
C         39.00822        33.78656         1.91924
C         40.26700        35.92813         2.01368
C         39.00695        35.20601         1.96040
C         40.28477        37.33168         2.08083
C         38.99894        38.08704         2.30311
C         40.26561        40.16623         1.93821
C         39.05942        39.51148         1.82110
C         40.37559        41.58923         1.57195
C         39.16761        42.28097         1.04068
C         40.33723        44.46504         1.22869
C         39.17045        43.75360         0.96045
C         40.42784        45.84495         0.88107
C         39.27684        46.49799         0.34623
C         40.57531        48.58531         0.16504
C         39.34086        47.88744         0.02127
C         40.66499        49.94856        -0.25764
C         39.48429        50.61467        -0.74162
C         40.77159        52.71563        -1.05872
C         39.56213        52.01109        -1.16712
C         40.82360        54.10184        -1.36032
C         39.67862        54.76041        -1.89441
C         40.89336        56.87478        -1.92321
C         39.75422        56.15639        -2.18537
C         42.64899        16.11536        -0.53360
C         41.30355        16.78128        -0.60287
C         42.55209        18.96199        -0.36096
C         41.36093        18.22345        -0.16595
C         42.53877        20.39058        -0.21020
C         41.34197        21.04128         0.21201
C         42.43839        23.23034        -0.22371
C         41.28923        22.46948         0.29055
C         42.45309        24.73981        -0.01133
C         41.33051        25.35116         0.70606
C         42.62520        27.45207         0.87562
C         41.41160        26.70191         1.09039
C         42.69115        28.81303         1.24499
C         41.54320        29.45689         1.98162
C         42.70534        31.65508         1.70172
C         41.48191        30.95026         1.79975
C         42.72005        33.07597         1.80359
C         41.48915        33.78301         1.90370
C         42.74832        35.91414         2.03275
C         41.50898        35.21657         1.97950
C         42.75734        37.33802         2.11088
C         41.51488        38.03711         2.12710
C         42.72804        40.16822         2.27407
C         41.51274        39.46845         2.17280
C         42.73280        41.63243         2.51026
C         41.45227        42.38468         2.23421
C         42.76249        44.54000         1.97755
C         41.40177        43.91352         2.14917
C         42.83668        45.87426         1.57370
C         41.65798        46.55074         1.05526
C         42.94748        48.65664         0.88357
C         41.73277        47.92305         0.68997
C         43.01011        50.02985         0.49283
C         41.88695        50.64377        -0.12456
C         43.14519        52.83028        -0.19903
C         42.05822        51.97833        -0.79998
C         43.14779        54.23134        -0.45579
C         42.01361        54.85730        -1.07865
C         43.18326        57.01384        -0.99141
C         42.03489        56.24715        -1.34160
C         43.78829        16.83822        -0.63697
C         44.96487        19.03309        -0.92715
C         43.77960        18.28646        -0.67404
C         44.94686        20.46455        -0.84182
C         43.73994        21.13588        -0.47930
C         44.89652        23.31392        -0.66583
C         43.72351        22.55425        -0.44017
C         44.89916        24.74667        -0.47233
C         43.74275        25.43600        -0.04693
C         44.97536        27.55107         0.09157
C         43.77775        26.80776         0.31473
C         45.03432        28.93935         0.49072
C         43.87621        29.55281         1.07457
C         45.14579        31.65441         1.40549
C         43.92366        30.94840         1.42507
C         45.17021        33.04102         1.71760
C         43.97124        33.77235         1.83752
C         45.22939        35.90318         2.06351
C         44.00165        35.20450         1.99935
C         45.25246        37.34935         2.19131
C         43.98710        38.06388         2.20964
C         45.18639        40.22277         2.64428
C         43.95461        39.46823         2.33756
C         45.22217        41.70854         2.55980
C         43.99945        42.38412         2.53794
C         45.22247        44.56924         2.52987
C         43.89758        43.88515         2.73686
C         45.23892        45.90517         2.19660
C         44.06284        46.61325         1.74204
C         45.25318        48.80913         1.74102
C         44.09899        48.01729         1.46196
C         45.31213        50.17393         1.36877
C         44.20515        50.79343         0.73520
C         45.39342        52.99100         0.76923
C         44.23747        52.20729         0.42560
C         45.40565        54.39123         0.52674
C         44.26839        55.02573        -0.08377
C         44.25702        56.42251        -0.37210
C         47.31782        19.13369        -1.58845
C         46.18828        18.40235        -1.30404
C         47.33065        20.55511        -1.51164
C         46.12918        21.22138        -1.12579
C         47.30585        23.40344        -1.25622
C         46.11340        22.64980        -1.01461
C         47.30526        24.81813        -1.08742
C         46.11137        25.48109        -0.65556
C         47.27549        27.65956        -0.83481
C         46.09686        26.88638        -0.44972
C         47.34732        29.12370        -0.37050
C         46.22848        29.67145         0.39753
C         47.58860        31.64066         0.96436
C         46.35273        30.98819         0.95975
C         47.74859        32.99529         1.52230
C         46.45259        33.73174         1.89777
C         47.70587        35.86477         1.91316
C         46.47827        35.20054         1.95391
C         47.76512        37.27415         2.43018
C         46.46264        38.02736         2.25926
C         47.72683        40.25338         2.37272
C         46.49634        39.46903         2.56300
C         47.72953        41.65275         2.55283
C         46.48625        42.37723         2.64960
C         47.74757        44.58896         2.94621
C         46.42581        43.83777         3.10635
C         47.73925        46.01471         2.64486
C         46.43627        46.70229         2.55445
C         47.69958        48.95629         2.67238
C         46.39044        48.19316         2.46839
C         47.70222        50.31488         2.02068
C         46.53504        50.93940         1.58484
C         47.72888        53.10857         1.55134
C         46.55686        52.34788         1.29341
C         47.68767        54.51938         1.37150
C         46.56512        55.13862         0.88121
C         49.71577        20.69668        -2.25325
C         48.51659        21.31862        -1.81123
C         49.69701        23.49079        -1.93575
C         48.50853        22.73671        -1.66537
C         49.70400        24.91070        -1.73953
C         48.51520        25.56440        -1.30266
C         49.72103        27.72088        -1.26863
C         48.53298        26.97052        -1.11930
C         49.78849        29.09429        -0.81258
C         48.67954        29.69671        -0.21900
C         50.07918        31.79278         0.24207
C         48.79355        30.93941         0.52241
C         49.98775        33.25765         0.43739
C         48.90588        33.82823         1.12350
C         50.06051        36.01082         1.14075
C         48.89985        35.22948         1.42597
C         50.11628        37.42441         1.49128
C         48.97978        38.05561         1.99751
C         50.29112        40.24017         2.32923
C         48.98887        39.49097         2.35915
C         50.21946        41.71250         2.15911
C         49.00901        42.35858         2.44291
C         50.21130        44.57917         2.17246
C         49.04919        43.81601         2.64990
C         50.17642        45.99005         2.20867
C         48.93881        46.71736         2.42917
C         50.15257        48.85342         2.20638
C         48.94391        48.14772         2.33674
C         50.16301        50.30757         2.22797
C         48.93593        51.02795         2.07786
C         50.17811        53.12891         2.08251
C         48.94775        52.43841         1.91542
C         50.84655        21.42969        -2.54708
C         52.05548        23.61998        -2.70951
C         50.87538        22.84131        -2.39818
C         52.05566        25.02834        -2.51092
C         50.87818        25.67623        -2.00556
C         52.06883        27.86002        -2.02858
C         50.89314        27.07939        -1.75844
C         52.08535        29.25284        -1.75636
C         50.98916        29.86832        -1.03624
C         51.99765        32.14336        -1.37801
C         51.03918        31.21818        -0.68108
C         52.19165        33.46539        -0.66449
C         51.10058        34.05429         0.05030
C         52.36226        36.17197         0.22562
C         51.16971        35.41811         0.47583
C         52.46154        37.53216         0.69614
C         51.35285        38.14733         1.29465
C         52.69558        40.28990         1.47398
C         51.57386        39.45505         2.04199
C         52.65694        41.74340         1.54589
C         51.42000        42.44118         1.83031
C         52.57910        44.61771         1.47283
C         51.39518        43.86818         1.79770
C         52.55233        46.02179         1.57128
C         51.37228        46.72907         1.93927
C         52.62251        48.89129         1.96765
C         51.38204        48.15237         2.01948
C         52.63798        50.29351         2.21445
C         51.37941        51.01503         2.28009
C         51.35243        52.43796         2.27597
C         54.35255        23.76248        -3.52734
C         53.23424        23.01576        -3.22123
C         54.38419        25.16937        -3.33546
C         53.22113        25.80414        -2.81316
C         54.38173        27.98925        -2.87212
C         53.22341        27.22077        -2.58041
C         54.39041        29.39785        -2.62172
C         53.23756        30.03276        -2.07438
C         54.42633        32.17008        -1.99783
C         53.27514        31.43458        -1.77297
C         54.61444        33.50643        -1.32190
C         53.35801        34.18970        -0.84565
C         54.68792        36.28835        -0.61668
C         53.46496        35.54765        -0.40402
C         54.82094        37.59206        -0.04801
C         53.73883        38.22024         0.59627
C         55.13003        40.29923         1.00368
C         53.81844        39.60251         1.03826
C         55.16401        41.79293         1.33102
C         53.81592        42.47647         1.24121
C         55.01491        44.60119         0.94692
C         53.81241        43.90500         1.18557
C         54.99138        46.06707         0.87458
C         53.74103        46.81460         1.22744
C         55.06887        48.91448         1.71895
C         53.83915        48.22360         1.67489
C         55.06885        50.27766         2.06474
C         53.87814        50.95773         2.28205
C         56.73346        25.36004        -4.19322
C         55.55623        25.95366        -3.65185
C         56.70122        28.14341        -3.72508
C         55.54613        27.35641        -3.41890
C         56.70614        29.55499        -3.49214
C         55.54570        30.17685        -2.92979
C         56.68254        32.35787        -3.02672
C         55.55843        31.57108        -2.64579
C         56.61269        33.82776        -2.91683
C         55.49621        34.45458        -2.09207
C         56.84539        36.53280        -1.85520
C         55.69820        35.77403        -1.48071
C         57.06609        37.79981        -1.24084
C         56.23613        38.14325        -0.02290
C         57.42803        40.44994        -0.13542
C         56.31174        39.61740         0.38228
C         57.45586        41.85329         0.13909
C         56.30794        42.52595         0.66183
C         57.44821        44.67166         0.31996
C         56.27017        43.92907         0.67571
C         57.42592        46.14298         0.33297
C         56.29351        46.76906         1.06972
C         57.62921        48.92709         1.21066
C         56.35720        48.19807         1.47833
C         57.84817        26.11262        -4.48644
C         59.00781        28.30683        -4.54750
C         57.86065        27.51693        -4.25894
C         59.00717        29.66529        -4.32033
C         57.86192        30.32793        -3.79355
C         58.94095        32.59681        -3.92774
C         57.83486        31.75906        -3.58040
C         58.94024        33.96040        -3.69283
C         57.81523        34.62734        -3.15362
C         58.92787        36.83709        -3.11794
C         57.83879        35.99738        -2.75087
C         59.08853        38.08197        -2.56019
C         58.20106        38.55577        -1.55013
C         59.58760        40.62119        -1.23990
C         58.41921        39.86932        -0.93957
C         59.70168        41.93690        -0.85250
C         58.61480        42.60680        -0.23643
C         59.86883        44.79591        -0.14493
C         58.63822        44.02994        -0.03946
C         59.92837        46.14064         0.03589
C         58.69974        46.93198         0.17976
C         58.71796        48.32554         0.69569
O         47.32490        33.11976         2.91151
O         56.57692        47.09376         2.46561
O         31.25911        34.64246         2.48394
O         42.07162        24.15821        -1.30949
O         56.16076        39.65667         1.85691
O         41.74602        41.95458         3.58298
O         25.41028        37.07026        -3.02192
O         45.84204        39.75681         3.87219
O         46.99317        28.77057        -1.75219
O         54.16031        46.63342        -0.19222
O         34.40026        37.95225         2.65918
O         34.63083        50.59725        -0.23181
O         49.74002        39.80821         3.62455
O         46.03410        47.52736         3.73900
O         55.37866        34.40887        -3.53116
O         57.75060        46.77150        -0.94641
O         48.66963        44.22055         4.02633
O         40.24305        41.76703         0.11969
O         37.32501        24.76920         3.24559
O         49.90297        31.01939         1.46664
O         36.70218        22.12232         3.51040
H         36.87351        23.03391         3.85701
O         41.84834        29.25108         3.41774
H         41.12081        29.66095         3.93260
O         46.19215        43.75513         4.55026
H         47.07642        43.60929         4.96434
O         51.35236        32.51611        -2.65141
H         51.27741        31.70133        -3.19264
O         38.85288        38.18334         3.77064
H         38.79744        37.26968         4.12321
O         42.55754        51.63907        -2.16209
H         43.42469        51.19435        -2.04603
O         55.38181        33.20804        -0.10744
H         54.81438        32.68001         0.49301
O         55.46148        41.90670         2.76276
H         56.04682        41.14486         2.98614
O         40.94029        16.80664        -2.04579
H         41.63381        17.33019        -2.50191
O         56.90305        37.38535         1.03628
H         56.63198        37.80478         1.88641
O         40.95729        44.38439         3.46056
H         41.67417        44.13716         4.09889
O         27.53994        38.79811        -3.44303
H         26.83266        38.17692        -3.74718
O         47.82480        49.25888         4.09505
H         47.30292        48.56597         4.56922
O         37.46168        51.02279        -3.20038
H         37.71414        51.63888        -3.91982
O         26.40415        26.72200         2.85405
H         25.55240        26.27463         3.04816
O         36.90440        51.55469         0.37321
H         35.94898        51.56766         0.62388
O         43.56062        44.07844         4.16408
H         44.38879        43.89118         4.67554
O         47.90971        37.14119         3.89580
H         47.85595        38.04279         4.28286
O         52.11148        39.02363         3.33252
H         51.34083        38.95105         3.94660
O         37.92320        18.35893         2.74339
H         37.25921        18.91664         3.20467
H         22.14777        26.67505         0.01746
H         22.17189        29.10256        -0.37463
H         22.22940        30.96208        -0.72158
H         22.32132        33.33542        -1.22323
H         22.34919        35.26115        -1.18198
H         22.42035        37.62941        -1.64917
H         22.52904        39.45957        -2.19958
H         22.60807        41.85914        -2.61505
H         22.71823        43.60641        -3.33108
H         22.86747        45.95310        -4.04382
H         25.38711        23.34580         0.96084
H         23.30793        24.58612         0.60601
H         26.34116        49.18237        -4.38216
H         24.19897        47.98540        -4.45326
H         27.02614        22.41444         1.13754
H         28.00840        50.05799        -4.38914
H         29.12098        21.22217         1.29940
H         30.05970        51.30509        -4.06367
H         32.85155        19.09326         1.44785
H         30.74611        20.29037         1.43746
H         33.52058        53.65038        -3.14674
H         31.52459        52.34850        -3.52322
H         34.44630        18.31274         0.60777
H         35.25629        54.50528        -3.21385
H         36.53087        17.05877         0.45437
H         37.38741        55.63519        -3.11608
H         40.27413        14.90531         0.06414
H         38.34471        16.04740         1.09486
H         40.93013        57.95291        -2.13622
H         38.88585        56.67811        -2.60832
H         42.68917        15.01639        -0.50114
H         43.19118        58.09216        -1.20598
H         44.75323        16.31212        -0.65538
H         45.11881        57.04662        -0.10272
H         48.22793        18.59299        -1.87978
H         46.23601        17.30880        -1.38989
H         48.56753        55.13001         1.61239
H         46.58243        56.22750         0.74598
H         49.75480        19.60697        -2.38117
H         50.21165        54.22492         2.02806
H         51.73948        20.89407        -2.89551
H         52.28744        53.00574         2.36842
H         55.23389        23.24192        -3.92445
H         53.26889        21.93117        -3.38853
H         56.01663        50.82667         2.14228
H         53.92261        52.02977         2.51315
H         56.76373        24.27923        -4.38446
H         57.70053        49.98011         1.52071
H         58.74538        25.63089        -4.90126
H         59.90348        27.81707        -4.95621
H         59.91365        30.23965        -4.55334
H         59.84433        32.14809        -4.36116
H         59.85312        34.52826        -3.91967
H         59.65462        36.49094        -3.86498
H         59.93777        38.69696        -2.88344
H         60.42025        40.15645        -1.78246
H         60.61587        42.48917        -1.10621
H         60.81137        44.24552        -0.27354
H         60.90077        46.65274         0.08516
H         59.65616        48.89272         0.59202
