         426
 CSIRO Nanostructure Databank - Neutral Graphene Oxide Data Set
C          1.54234         2.07672         2.07152
C          1.55118         3.48751         2.40418
C          2.53400         1.39470         1.42117
C          2.18368         4.40873         1.61702
C          1.49995         6.56007         2.54261
C          1.57615         7.92934         2.63197
C          2.49860         5.81126         1.87001
C          2.67588         8.61400         2.05768
C          1.48116        10.82041         2.24588
C          1.42699        12.17527         2.15342
C          2.69459        10.05202         2.04172
C          2.64885        12.98668         2.05024
C          1.40750        15.18963         1.81685
C          1.39983        16.56324         1.59099
C          2.59026        14.43765         1.67428
C          2.55515        17.22726         1.12967
C          2.59650        18.67605         0.99467
C          3.80670         1.97465         1.01962
C          3.85941         3.39794         0.73021
C          4.99055         1.27146         1.01742
C          4.95079         4.19893         0.91072
C          3.68673         6.42499         1.39212
C          3.76655         7.86620         1.50018
C          4.88211         5.67872         0.92415
C          4.90789         8.58684         1.04119
C          3.86882        10.71613         1.66440
C          3.92529        12.18270         1.76728
C          4.99563         9.98173         1.17836
C          5.05709        12.86773         1.13218
C          3.75758        15.09866         1.22761
C          3.71925        16.47025         0.87125
C          5.02728        14.33543         1.11731
C          4.87502        17.18344         0.25410
C          3.73980        19.35439         0.70631
C          4.97619        18.66876         0.36622
C          6.23234         1.96944         0.76776
C          6.28782         3.47707         1.02287
C          7.36674         1.27937         0.44651
C          7.29166         4.16380         0.11943
C          6.03031         6.37760         0.59109
C          6.01302         7.86866         0.30574
C          7.21770         5.64935         0.06157
C          7.37939         8.53076         0.59117
C          6.20481        10.70151         0.77447
C          6.18338        12.14431         0.74088
C          7.36849        10.03447         0.39397
C          7.31054        12.80049         0.10546
C          6.15586        14.99407         0.35521
C          6.11611        16.43301        -0.05873
C          7.07103        14.09268        -0.31077
C          7.40710        17.21532         0.16285
C          6.13353        19.33560         0.07583
C          7.38182        18.62728        -0.43521
C          8.61786         1.93639         0.00287
C          8.59373         3.46145        -0.17460
C          9.92092         1.31897         0.15887
C          9.85832         4.19176        -0.10427
C          8.51145         6.37152        -0.20838
C          8.52828         7.85806        -0.13336
C          9.79510         5.66684         0.23731
C          9.82629         8.56863        -0.16312
C          8.58536        10.72374         0.03378
C          8.58355        12.13670        -0.13477
C          9.81979         9.99128        -0.17462
C          9.82357        12.87351        -0.28415
C          8.83616        15.20136        -0.56795
C          8.69480        16.48547        -0.13004
C          9.94527        14.32109        -0.26583
C          9.87210        17.18354         0.40705
C          8.71052        19.31810        -0.15596
C          9.87891        18.66058         0.16887
C         11.08851         2.04049        -0.10478
C         11.05972         3.50218        -0.17971
C         12.34155         1.37194        -0.17295
C         12.32681         4.20883        -0.17043
C         11.04604         6.41432        -0.13404
C         11.02073         7.78954        -0.30736
C         12.34258         5.69154         0.14635
C         12.26544         8.49335        -0.68657
C         11.02742        10.72666        -0.34633
C         11.05837        12.14163        -0.28472
C         12.26635        10.00718        -0.69632
C         12.33124        12.83411        -0.28627
C         11.15134        14.96025         0.06150
C         11.14696        16.39244         0.45443
C         12.38379        14.23975        -0.05395
C         12.42986        17.16015         0.46670
C         11.16420        19.30783         0.13372
C         12.38537        18.62028         0.19210
C         13.55545         2.06979        -0.30471
C         13.51965         3.52313        -0.22998
C         14.76949         1.37648        -0.51460
C         14.81092         4.25040        -0.15939
C         13.58002         6.40307        -0.35315
C         13.55406         7.78770        -0.58787
C         14.81043         5.72025        -0.37377
C         14.75741         8.50988        -0.77308
C         13.56685        10.69076        -0.59204
C         13.57043        12.12912        -0.42637
C         14.73534         9.95689        -0.73149
C         14.78091        12.84966        -0.49531
C         13.62101        14.94315        -0.08424
C         13.69584        16.39191         0.18622
C         14.81704        14.26871        -0.40792
C         14.87689        17.12841        -0.28475
C         13.62552        19.26870        -0.02115
C         14.83958        18.57236        -0.24768
C         16.00961         2.04160        -0.74253
C         16.07680         3.49207        -0.43640
C         17.12074         1.39828        -1.24156
C         17.29138         4.24029        -0.81828
C         16.01744         6.41314        -0.61404
C         16.00014         7.80967        -0.79700
C         17.34802         5.70599        -0.43947
C         17.23107         8.53454        -1.10339
C         16.03782        10.64097        -0.67821
C         16.06356        12.14251        -0.59783
C         17.21564         9.90403        -1.16757
C         17.24878        12.90041        -1.03191
C         16.04207        15.00184        -0.64979
C         16.01818        16.41942        -0.67417
C         17.24786        14.28505        -1.00406
C         17.17901        17.17985        -1.27372
C         16.05806        19.27273        -0.43073
C         17.25540        18.60573        -0.76601
C         18.33706         2.13806        -1.72468
C         18.39867         3.57416        -1.25427
C         19.63198         1.40921        -1.48453
C         19.67392         4.26504        -1.34253
C         18.49998         6.41855        -1.10358
C         18.47586         7.80767        -1.34086
C         19.68963         5.69973        -1.32453
C         19.65310         8.48534        -1.74411
C         18.33669        10.66413        -1.74471
C         18.38021        12.17068        -1.63634
C         19.59875         9.92673        -2.07811
C         19.68883        12.85594        -1.72111
C         18.49105        14.99402        -1.29823
C         18.49813        16.44028        -1.23235
C         19.67088        14.28589        -1.53985
C         19.69532        17.14218        -1.24780
C         18.47551        19.26902        -0.76258
C         19.71502        18.58661        -1.00838
C         20.83879         2.08661        -1.41853
C         20.86699         3.54502        -1.40537
C         22.09058         1.40076        -1.41959
C         22.12558         4.23412        -1.36522
C         20.91535         6.39206        -1.54493
C         20.90915         7.81029        -1.75269
C         22.13657         5.66774        -1.49469
C         22.14547         8.50961        -1.90315
C         20.88362        10.71179        -2.28308
C         20.87919        12.16227        -1.95594
C         22.20923         9.94524        -2.40494
C         22.15767        12.85187        -1.79851
C         20.92494        15.03364        -1.90964
C         20.95584        16.44623        -1.38775
C         22.18682        14.24461        -1.65396
C         22.16190        17.09196        -1.21556
C         20.90800        19.26417        -0.96174
C         22.23534        18.60324        -1.17074
C         23.32593         2.05203        -1.28484
C         23.33454         3.51793        -1.18006
C         24.50705         1.24917        -1.45807
C         24.53519         4.29648        -1.07179
C         23.35944         6.39294        -1.55806
C         23.36257         7.81519        -1.75640
C         24.57746         5.69512        -1.37184
C         24.62473         8.51782        -1.77525
C         23.41907        10.68989        -1.89627
C         23.39146        12.10263        -1.76443
C         24.63504         9.94992        -1.81324
C         24.61762        12.82474        -1.63446
C         23.41264        14.94508        -1.41399
C         23.40736        16.35348        -1.17738
C         24.64560        14.21847        -1.41132
C         24.61844        17.02522        -0.83284
C         23.27052        19.07006        -0.13865
C         24.59730        18.40564        -0.41033
C         25.75841         1.61485        -0.93183
C         25.73997         3.71952        -0.61883
C         27.06965         1.27173        -1.26461
C         27.01611         4.26245        -0.84370
C         25.83357         6.38487        -1.40924
C         25.85417         7.80317        -1.64868
C         27.04947         5.66498        -1.21891
C         27.11049         8.49598        -1.70296
C         25.89201        10.63325        -1.78923
C         25.87102        12.09724        -1.86491
C         27.11975         9.94271        -1.78571
C         27.19087        12.84774        -1.57393
C         25.89436        14.92117        -1.15802
C         25.86105        16.33168        -0.86300
C         27.11837        14.24080        -1.11336
C         27.07962        17.03484        -0.61744
C         25.76425        19.07976        -0.16023
C         27.04042        18.43738        -0.28788
C         28.22445         2.00029        -0.78678
C         28.18844         3.46019        -0.62913
C         29.43669         1.24014        -0.80498
C         29.43202         4.20844        -0.62984
C         28.28197         6.34914        -1.36951
C         28.31402         7.73467        -1.59543
C         29.53080         5.55819        -1.24935
C         29.62755         8.42160        -1.62218
C         28.36290        10.68876        -1.63310
C         28.37697        12.03655        -1.31104
C         29.64008         9.92269        -1.67664
C         29.58857        12.74499        -0.68798
C         28.36620        14.93138        -0.86535
C         28.33216        16.37278        -0.67966
C         29.57770        14.24938        -0.84998
C         29.53734        17.08803        -0.42869
C         28.21929        19.13355        -0.02847
C         29.48250        18.48549        -0.08049
C         30.61372         1.58599        -0.08951
C         30.54797         3.71676        -0.00808
C         31.93411         1.17827        -0.21822
C         31.94676         4.13070        -0.38998
C         30.85940         6.27759        -1.09325
C         30.81402         7.73335        -1.04407
C         32.01450         5.63644        -0.43560
C         31.80687         8.42206        -0.37238
C         30.77870        10.59768        -1.01508
C         30.85266        12.09124        -1.25739
C         31.55452         9.83817        -0.19206
C         32.18062        12.79329        -0.88165
C         30.84652        15.05912        -1.12452
C         30.79974        16.43229        -0.48376
C         32.17417        14.33470        -0.86776
C         31.96730        17.11004        -0.11090
C         30.67184        19.18437         0.18719
C         31.91918        18.52046         0.20655
C         33.04338         1.91564         0.43667
C         33.02917         3.46116         0.43008
C         34.37734         1.30313         0.52009
C         34.29422         4.20468         0.56268
C         33.11293         6.35212        -0.01101
C         33.09822         7.81831         0.01113
C         34.31149         5.61553         0.41398
C         34.29995         8.53258         0.22373
C         33.38771        10.84292         0.25710
C         33.35950        12.16416        -0.27804
C         34.44561         9.96657         0.12358
C         34.57242        12.87694        -0.20843
C         33.30815        15.01042        -0.23077
C         33.23244        16.41968         0.04318
C         34.53255        14.30905        -0.08081
C         34.37593        17.11191         0.44464
C         33.11255        19.21444         0.50436
C         34.35431        18.54152         0.60942
C         35.51602         2.03455         0.76647
C         35.49015         3.49934         0.81608
C         36.78695         1.35547         0.94236
C         36.67515         4.22762         1.06570
C         35.49701         6.32321         0.68399
C         35.61614         7.75297         0.20662
C         36.65913         5.63585         1.09554
C         36.81647         8.48514         0.79543
C         35.79036        10.62494        -0.18334
C         35.77537        12.14315         0.03820
C         36.81788         9.95589         0.70541
C         36.94025        12.84618         0.32167
C         35.71429        14.96844         0.36053
C         35.59047        16.35884         0.91255
C         36.92331        14.27517         0.49204
C         36.87584        17.13257         0.86496
C         35.56150        19.23202         0.86123
C         36.82180        18.56269         0.93511
C         37.96520         2.03057         1.11471
C         38.00453         3.52871         0.95478
C         39.24224         1.37136         1.25824
C         39.10746         4.16734         1.76148
C         37.74829         6.42603         1.81196
C         37.91719         7.84602         1.31000
C         39.04693         5.65092         2.02751
C         39.16366         8.55162         1.62845
C         38.06311        10.70717         1.05951
C         38.20235        12.10353         0.54487
C         39.26676         9.95540         1.45468
C         39.43968        12.85735         0.92976
C         38.14042        14.99298         0.85183
C         38.09010        16.44417         0.97013
C         39.34553        14.32870         1.06829
C         39.30246        17.17510         1.19114
C         38.02521        19.27985         1.07700
C         39.26119        18.60662         1.22030
C         40.40637         2.06848         1.45422
C         40.41574         3.48861         1.69353
C         41.55130         4.21971         1.98466
C         40.33240         6.37103         2.10579
C         40.33046         7.82666         2.02733
C         41.50541         5.63217         2.15186
C         41.51468         8.54901         2.29371
C         40.46719        10.67068         1.72222
C         40.52806        12.12708         1.61858
C         41.58506         9.92639         2.15853
C         41.57913        12.88372         2.10253
C         40.53005        15.03328         1.49019
C         40.53145        16.49393         1.43944
C         41.60809        14.29847         1.97778
C         41.69564        17.24821         1.64559
C         40.47063        19.32906         1.42460
C         41.66167        18.65349         1.62319
O         12.12949         9.23226        -1.94911
O         13.30173        16.77651         1.57133
O         17.90391        11.50130        -2.87426
O         30.45046         5.66265        -2.39856
O         16.33274        11.30656         0.61695
O         15.66535         3.80945         0.96663
O         36.94766        10.60427         2.01438
O         10.36541        16.67524         1.68452
O          2.63613         3.97278         0.35883
O         29.90226         9.15300        -2.88844
O          7.81248        14.63566        -1.35748
O         32.67399         2.71737         1.61466
O         38.81293         4.65317         3.10172
O         25.65608         2.55675         0.12966
O         30.37505         2.63394         0.84417
O          6.19742        14.90927         1.82805
O         26.67830        12.66958        -2.93788
O         39.23053        12.32935        -0.45661
O         20.03967        10.31287        -3.42279
O          8.38098         7.14854        -1.43605
O          6.77924         4.79353        -1.07808
O         32.21639        10.43346         0.88300
O          8.47343         2.58298        -1.32869
O          3.62003        12.71188         3.11212
O         32.62767        13.57894        -2.03655
O         35.33445        16.14053         2.36661
H         35.28353        17.02872         2.78144
O         30.69407        12.25778        -2.68519
H         31.37647        11.72800        -3.14749
O         17.63113         5.74966         0.99943
H         16.99794         5.11591         1.41929
O         32.14322         3.63897        -1.75849
H         31.60326         4.22484        -2.35152
O         30.78941        15.31316        -2.55904
H         30.96560        14.44661        -2.99778
O         20.86424        15.20293        -3.38260
H         20.80652        14.30409        -3.77395
O         12.45981         5.73417         1.63261
H         13.26228         5.22252         1.87834
O         18.19513         2.20752        -3.19943
H         18.99992         2.64717        -3.54838
O          7.63286         8.29404         2.00455
H          8.50420         8.67831         2.23605
O         22.83425        18.73359         1.18655
H         22.79672        17.75746         1.25841
O          7.44537        17.43796         1.59838
H          7.44624        16.56701         2.05590
O         16.84551        17.28943        -2.70416
H         17.60317        17.72453        -3.14998
O          5.73090         8.00537        -1.10970
H          6.43602         7.51788        -1.60165
O         36.18621        10.37793        -1.55017
H         35.50367        10.74832        -2.14658
O          6.81347         3.63779         2.37089
H          6.18263         3.22506         2.99662
O         35.92000         7.61400        -1.22593
H         36.81593         7.22510        -1.31206
O         29.57721        12.47011         0.74204
H         28.83413        12.96420         1.14717
O          7.25938        18.54040        -1.87604
H          6.43617        18.02781        -2.06296
O         22.47955         9.80529        -3.83844
H         21.60041         9.71063        -4.27690
O          5.22645        16.74426        -1.15714
O          9.68630         5.71791         1.70350
H         10.60086         5.59339         2.05974
O         37.17835         6.63099         3.14216
H         37.39555         5.82520         3.66697
O         38.42209         3.76470        -0.43881
H         37.80832         3.26851        -1.02117
O         22.75744        19.03939        -2.46257
H         22.19982        18.63814        -3.16203
H          0.71468         1.48237         2.49201
H          1.06472         3.79849         3.34012
H          2.44725         0.29900         1.35262
H          0.62715         6.02818         2.94699
H          0.77767         8.48455         3.14022
H          0.53395        10.27366         2.35354
H          0.44759        12.67497         2.15384
H          0.48698        14.70265         2.16679
H          0.48380        17.14125         1.77896
H          1.67401        19.23256         1.21728
H          5.00442         0.18198         1.17022
H          3.73822        20.45444         0.69537
H          7.32520         0.17970         0.38654
H          6.13372        20.43719         0.10630
H          9.98869         0.26412         0.46348
H          8.76270        20.39639        -0.38013
H         12.35489         0.27202        -0.15972
H         11.18924        20.39031        -0.06810
H         14.73314         0.28242        -0.62704
H         13.63714        20.36646        -0.10088
H         17.06391         0.32148        -1.46382
H         16.08571        20.35654        -0.23989
H         19.62916         0.30912        -1.52140
H         18.51194        20.33615        -0.49471
H         22.08101         0.30499        -1.51960
H         20.90523        20.35184        -0.79180
H         24.40291         0.30020        -2.00546
H         23.37426        20.18118        -0.18080
H         27.25081         0.37441        -1.87502
H         25.73236        20.13013         0.16599
H         29.41239         0.27407        -1.33272
H         28.17363        20.19975         0.23858
H         32.19478         0.36794        -0.91351
H         30.62928        20.26081         0.41001
H         34.46027         0.21382         0.38276
H         33.07172        20.29925         0.68344
H         36.78200         0.25428         0.95826
H         35.53959        20.32785         0.95597
H         39.26935         0.27372         1.18490
H         38.00219        20.37917         1.11186
H         41.36287         1.52728         1.50849
H         42.53178         3.72160         1.99993
H         42.47074         6.14933         2.24008
H         42.41210         8.01614         2.63446
H         42.53161        10.43336         2.38859
H         42.42972        12.39991         2.60252
H         42.50263        14.82083         2.34393
H         42.65686        16.74560         1.81977
H         40.44506        20.42813         1.43074
H         42.59285        19.21618         1.77842
