         404
 CSIRO Nanostructure Databank - Neutral Graphene Oxide Data Set
C          1.03272         3.57207         0.53663
C         -0.15775         4.25051         0.31172
C          1.03852         6.36221         0.09204
C         -0.15803         5.62983         0.05971
C          1.02962         7.82933        -0.30497
C         -0.06996         8.64039         0.34410
C          1.17780        10.71269        -0.08955
C         -0.00738         9.98790         0.36034
C          1.17960        12.13846        -0.28198
C          0.01426        12.92875        -0.06863
C          1.13995        14.99113        -0.74846
C          0.01387        14.30236        -0.24124
C          1.18635        16.41266        -0.87826
C         -0.00890        17.18142        -0.79477
C          1.24533        19.27287        -0.74529
C          0.01469        18.55463        -0.75792
C          1.27879        20.70403        -0.60526
C          0.05923        21.47511        -0.50437
C          1.28830        23.49978         0.11846
C          0.06033        22.79036        -0.13854
C          1.31826        24.72731         0.75374
C          0.12041        25.38443         1.23452
C          1.33792        27.44886         1.90302
C          0.12010        26.62926         1.77104
C          1.27623        28.94821         1.62904
C         -0.00413        29.59888         1.30339
C          1.14914        31.62471         0.56438
C         -0.05059        30.86334         0.81605
C          1.13044        32.91877         0.01240
C         -0.03328        33.77604        -0.11462
C          1.01192        36.10091        -0.13002
C         -0.09114        35.15675        -0.16172
C          0.96387        37.41838         0.40624
C          3.50399         3.54887         0.60766
C          2.26694         4.27021         0.53992
C          3.50685         6.43393         0.43724
C          2.24004         5.68703         0.36645
C          3.52399         7.86664         0.06159
C          2.35917         8.54092        -0.13620
C          3.60745        10.68374        -0.49833
C          2.36553         9.99485        -0.27111
C          3.60336        12.08521        -0.79065
C          2.37023        12.77914        -0.73183
C          3.67303        14.95156        -1.29679
C          2.30852        14.19346        -1.10810
C          3.66944        16.40064        -1.08169
C          2.44321        17.10820        -0.98321
C          3.71130        19.23407        -0.82361
C          2.46169        18.54056        -0.85508
C          3.72824        20.65527        -0.63432
C          2.51264        21.37355        -0.51879
C          3.83017        23.47752        -0.01315
C          2.52963        22.89093        -0.50093
C          3.86715        24.78206         0.54034
C          2.61874        25.35741         1.10408
C          3.92076        27.54683         1.65949
C          2.64928        26.73020         1.71441
C          3.84559        29.03557         1.44455
C          2.51101        29.68124         1.26109
C          3.68104        31.84976         1.02863
C          2.43275        30.99341         0.85764
C          3.60391        33.11510         0.22968
C          2.42332        33.46680        -0.33705
C          3.46933        36.26765        -0.08693
C          2.29644        35.66321        -0.50922
C          3.42334        37.60230         0.40047
C          2.12568        38.16623         0.59086
C          5.98159         3.49486         0.42010
C          4.75111         4.17452         0.47144
C          6.00440         6.30454        -0.10652
C          4.78564         5.65613         0.46188
C          6.00668         7.77679        -0.33609
C          4.83991         8.60148         0.18724
C          6.05737        10.62750        -0.67500
C          4.82659         9.98350        -0.41479
C          6.08553        12.03907        -0.89617
C          4.86267        12.77532        -0.96459
C          6.14364        14.90161        -1.07047
C          4.90733        14.19003        -1.09405
C          6.14753        16.33925        -1.09816
C          4.92141        17.07779        -1.03108
C          6.18025        19.20904        -0.97445
C          4.93204        18.50800        -0.94982
C          6.17204        20.64043        -0.79337
C          4.98823        21.34728        -0.57970
C          6.26929        23.43849        -0.06541
C          5.02773        22.77145        -0.24952
C          6.29670        24.80399         0.35622
C          5.08268        25.45492         0.71187
C          6.32967        27.62170         0.78563
C          5.23111        26.78380         1.43023
C          6.27024        29.03299         0.67626
C          5.04750        29.75368         0.91950
C          6.14281        31.87462         0.32635
C          4.97629        31.12406         0.70140
C          6.11264        33.30491         0.17076
C          4.79890        33.99833         0.27315
C          5.96349        36.27993        -0.11019
C          4.71978        35.48803         0.10824
C          5.90943        37.70517         0.32869
C          4.66328        38.29016         0.61557
C          8.45787         3.49267         0.47001
C          7.23825         4.18115         0.32641
C          8.48914         6.30349         0.02110
C          7.28054         5.59032         0.06513
C          8.52267         7.72972        -0.26755
C          7.30867         8.47664        -0.46141
C          8.52422        10.54685        -1.03863
C          7.28356         9.85246        -0.69940
C          8.54622        12.01123        -1.07055
C          7.34766        12.74179        -0.99547
C          8.62507        14.89236        -1.18230
C          7.37143        14.17964        -1.06255
C          8.62258        16.31662        -1.25305
C          7.39708        17.03970        -1.15278
C          8.66648        19.15579        -0.84709
C          7.38373        18.47158        -1.08449
C          8.72529        20.63198        -0.96327
C          7.42974        21.40236        -0.90861
C          8.73386        23.40427        -0.23018
C          7.50579        22.78201        -0.39861
C          8.81822        24.76379         0.41707
C          7.52944        25.51658         0.40357
C          8.73454        27.66563         0.15820
C          7.53190        26.93756         0.47122
C          8.69087        29.08251         0.07736
C          7.44265        29.76356         0.29437
C          8.58115        31.92555        -0.05677
C          7.38122        31.18339         0.17470
C          8.53690        33.34895        -0.08427
C          7.28330        34.04218         0.01164
C          8.49332        36.32727         0.21300
C          7.25554        35.53955        -0.11037
C          8.41340        37.83676         0.25167
C          7.12751        38.41103         0.43873
C         10.91832         3.49442         0.63919
C          9.69459         4.18261         0.45563
C         10.94508         6.31582         0.34835
C          9.71460         5.60779         0.26493
C         10.96520         7.74419         0.19181
C          9.75471         8.40704        -0.20322
C         10.98364        10.61689        -0.27737
C          9.83467         9.78055        -0.70901
C         11.14358        11.98130        -0.84474
C          9.81907        12.70924        -1.24447
C         11.16325        14.80627        -1.34605
C          9.83710        14.16176        -1.24476
C         11.20450        16.30203        -1.51582
C          9.88492        17.06568        -1.66460
C         11.20767        19.20638        -1.13705
C          9.96536        18.42075        -0.99653
C         11.18688        20.57907        -0.86456
C          9.98900        21.31178        -0.66698
C         11.20479        23.43791        -0.32872
C          9.98835        22.71573        -0.42667
C         11.21948        24.86280        -0.26879
C         10.00980        25.55951        -0.04622
C         11.16771        27.70163        -0.36447
C          9.96627        26.97031        -0.08542
C         11.12574        29.12454        -0.43568
C          9.88274        29.81152        -0.22294
C         11.01719        31.99864        -0.38717
C          9.82864        31.24961        -0.23667
C         10.98584        33.40832        -0.26451
C          9.75477        34.07078        -0.16183
C         10.99079        36.21246        -0.36973
C          9.75242        35.54096         0.03222
C         10.88547        38.26622         0.06537
C          9.54817        38.65219         0.43097
C         13.37659         3.48647         0.82045
C         12.14563         4.18049         0.68293
C         13.39406         6.32595         0.66251
C         12.16206         5.61677         0.57038
C         13.40557         7.75587         0.56531
C         12.18498         8.44653         0.34306
C         13.48375        10.63952         0.30014
C         12.19710         9.91889         0.30109
C         13.49997        12.07808         0.07407
C         12.32306        12.77691        -0.42017
C         13.48932        14.96048        -0.36357
C         12.33606        14.12952        -0.72976
C         13.61402        16.36633        -0.81488
C         12.43558        17.05671        -1.16602
C         13.68951        19.15928        -1.09751
C         12.45099        18.48131        -1.21028
C         13.72851        20.62042        -1.14327
C         12.43084        21.36133        -0.97379
C         13.73333        23.46526        -0.60167
C         12.49636        22.68102        -0.24486
C         13.69085        24.87908        -0.59978
C         12.44903        25.58428        -0.45439
C         13.62259        27.74557        -0.72633
C         12.41428        27.01039        -0.51729
C         13.55969        29.16514        -0.88430
C         12.33088        29.83771        -0.74232
C         13.52921        32.10574        -0.95265
C         12.25543        31.31261        -0.83247
C         13.54690        33.48210        -0.38276
C         12.26086        34.16134        -0.07700
C         13.40571        36.44712        -0.06195
C         12.24179        35.64929        -0.15176
C         13.37456        37.86637         0.23208
C         12.13770        38.58067         0.55641
C         15.83278         3.46540         0.94597
C         14.59686         4.17138         0.87743
C         15.83926         6.32148         0.97596
C         14.61474         5.61344         0.84127
C         15.82968         7.74669         0.96598
C         14.63720         8.47668         0.72159
C         15.90041        10.67511         0.76267
C         14.63621         9.92420         0.59603
C         15.96670        12.08583         0.31098
C         14.72579        12.76996         0.13854
C         16.05349        14.92761        -0.06701
C         14.76385        14.23430         0.07284
C         16.08259        16.32235        -0.35658
C         14.85293        17.03844        -0.67841
C         16.13549        19.17626        -0.79690
C         14.90182        18.45667        -0.87377
C         16.17379        20.59565        -0.78468
C         14.97329        21.33607        -0.83866
C         16.20751        23.47222        -0.80474
C         14.95594        22.76029        -0.75318
C         16.17149        24.92119        -0.75097
C         14.91761        25.61329        -0.69940
C         16.11480        27.74635        -0.74198
C         14.88519        27.03775        -0.73734
C         16.12628        29.18476        -1.02391
C         14.82121        29.90495        -1.18021
C         16.09101        32.11286        -0.61322
C         14.85755        31.41852        -1.10517
C         16.05420        33.54389        -0.36630
C         14.79287        34.28260        -0.57224
C         15.93521        36.37265         0.29783
C         14.70653        35.76270        -0.25458
C         15.88395        37.90000         0.52825
C         14.58721        38.56491         0.34661
C         18.29211         3.41217         0.96012
C         17.05010         4.13875         0.98221
C         18.32947         6.22820         1.07095
C         17.08390         5.58226         1.03625
C         18.40059         7.68577         1.27892
C         17.09392         8.44822         1.26219
C         18.44973        10.51976         0.58574
C         17.15556         9.93025         1.05288
C         18.45799        11.99981         0.26711
C         17.18506        12.76382         0.27721
C         18.50764        14.87407         0.09410
C         17.24707        14.19092         0.07980
C         18.52489        16.29170        -0.07920
C         17.32169        16.98870        -0.38026
C         18.61788        19.16499        -0.40035
C         17.41928        18.39978        -0.90676
C         18.63015        20.58470        -0.53462
C         17.43540        21.31607        -0.72958
C         18.69615        23.48524        -0.96677
C         17.41867        22.74817        -0.84096
C         18.67068        24.99047        -0.78334
C         17.36761        25.66370        -0.65379
C         18.57937        27.81841        -0.31667
C         17.35058        27.07950        -0.58322
C         18.56661        29.21620        -0.20609
C         17.39103        29.97108        -0.69151
C         18.40109        32.08111         0.33664
C         17.26199        31.41221        -0.39696
C         18.47241        33.57013         0.09824
C         17.23344        34.26583        -0.09581
C         18.40385        36.41595         0.29326
C         17.21940        35.69383         0.09844
C         18.36550        37.86749         0.38637
C         17.16301        38.57526         0.40626
C         19.49454         4.06117         0.94339
C         20.77780         6.18914         0.97005
C         19.55108         5.49468         0.99294
C         20.83821         7.58934         0.96020
C         19.69070         8.38639         1.05683
C         20.89255        10.56483         0.79987
C         19.72028         9.81426         0.88045
C         20.89469        11.96339         0.59773
C         19.74038        12.71607         0.39251
C         20.93281        14.90071         0.38583
C         19.73761        14.15964         0.30022
C         20.94037        16.28866         0.28823
C         19.75990        17.01676         0.06019
C         20.93702        19.21405         0.40630
C         19.76386        18.46479         0.00338
C         21.03699        20.54733         0.18911
C         19.94498        21.26918        -0.48704
C         21.13184        23.57564        -0.26010
C         19.99500        22.76533        -0.72571
C         21.06007        24.92293        -0.06371
C         19.86822        25.69521        -0.27609
C         20.95236        27.83478         0.36189
C         19.80120        27.08364        -0.05659
C         20.93227        29.19799         0.45124
C         19.74545        29.95245         0.16458
C         20.90739        32.14098         0.35438
C         19.72564        31.36532         0.22023
C         20.88780        33.51898         0.40521
C         19.66994        34.26924         0.26476
C         20.84631        36.48057         0.29904
C         19.67147        35.72945         0.27386
C         20.80904        37.89442         0.33385
C         19.61325        38.57399         0.37566
O          5.73705         6.86920        -1.45387
O         10.77461        12.11207        -2.22210
O          4.74446        34.89157         1.46397
O          2.86486        14.49693        -2.42281
O          2.75828        25.55689         2.57248
O         18.80618        24.37384        -2.12444
O          2.41132        34.50260        -1.27963
O         10.89003        37.38863        -1.07674
O          1.31787        28.39088         3.00718
O         15.79566        36.90612         1.63735
O         17.07114        29.56633        -2.06799
O         20.34294        21.83235        -1.80611
O         16.48288        10.62111         2.14807
O         12.68745        31.93145        -2.12099
O         11.17340        10.56677         1.16393
O          4.05397        28.46329         2.79553
O         18.41607        10.97286        -0.81088
O         13.85731        14.85030         1.05569
O          8.10699        21.15183        -2.19227
O          9.36816         9.91886        -2.06715
O         13.07869        33.57321         1.00601
O         14.88071        30.73016        -2.38565
O          4.27638         6.23223         1.71682
O          9.36093        18.57583         0.32568
O         14.82557        35.27254        -1.64652
O         11.43908        15.42039        -2.67829
O         13.02159        21.28089        -2.28706
O         17.71310         8.07477         2.53697
O          9.23331        35.86438         1.39569
O          6.65763        36.02061        -1.37556
O          2.46741        23.28992        -1.92343
H          1.68829        22.83987        -2.31504
O          9.09256        24.49477         1.86386
H          8.22979        24.50029         2.33337
O         12.64740        22.30153         1.17459
H         12.39134        23.07455         1.72191
O          3.72414        32.18975         2.44168
H          3.76996        31.35412         2.95354
O          5.08880         8.80854         1.61281
H          4.86491         7.95455         2.06330
O          5.74007        26.43851         2.75458
H          5.42929        27.14476         3.36660
O          0.73876         7.82759        -1.74079
H          0.74045         8.76072        -2.04273
O          9.73426        17.36692        -3.07859
H         10.09400        16.59362        -3.57255
O         17.65107        18.23789        -2.36137
H         17.79217        19.13357        -2.73769
O         18.04105        31.94529         1.77723
H         18.70194        32.46053         2.28837
H          1.03005         2.48293         0.68665
H         -1.10745         3.69761         0.29688
H         -1.10450         6.13669        -0.17373
H         -0.97617         8.12817         0.69975
H         -0.85726        10.56037         0.75857
H         -0.90502        12.44943         0.29222
H         -0.89489        14.86225         0.01859
H         -0.98001        16.66874        -0.77917
H         -0.94008        19.09329        -0.70676
H         -0.90723        20.97955        -0.66333
H         -0.90404        23.29436         0.01382
H         -0.83629        24.84909         1.16688
H         -0.81969        27.05441         2.14965
H         -0.93601        29.05646         1.51292
H         -1.02500        31.32275         0.59827
H         -1.00887        33.27242        -0.01592
H         -1.09981        35.59618        -0.08481
H         -0.00684        37.85230         0.68809
H          3.46111         2.45161         0.68173
H          2.04473        39.19553         0.96953
H          5.99088         2.39800         0.50665
H          4.63757        39.33232         0.96867
H          8.45184         2.40527         0.63616
H          7.08121        39.48582         0.67538
H         10.90763         2.40034         0.75372
H          9.38512        39.67855         0.79694
H         13.37016         2.38743         0.86757
H         12.21932        39.37713         1.31038
H         15.81923         2.36536         0.93310
H         14.55658        39.65943         0.45612
H         18.25334         2.31337         0.93272
H         17.17656        39.66732         0.27225
H         20.43598         3.49444         0.90449
H         21.71238         5.61402         0.90341
H         21.82123         8.06653         0.84196
H         21.86267        10.07527         0.96413
H         21.86974        12.46786         0.64021
H         21.88982        14.38539         0.54033
H         21.90345        16.80943         0.37046
H         21.77383        18.68707         0.88453
H         21.96011        21.08370         0.44842
H         22.09904        23.06992        -0.13152
H         21.97296        25.43891         0.26398
H         21.88604        27.30774         0.59825
H         21.84453        29.72167         0.76708
H         21.88371        31.63652         0.37447
H         21.84205        34.05185         0.50991
H         21.82678        35.98635         0.27685
H         21.75649        38.45133         0.33658
H         19.59931        39.67246         0.41939
