         420
 CSIRO Nanostructure Databank - Neutral Graphene Oxide Data Set
C         27.98835        27.40529        -1.52154
C         27.98362        28.80318        -1.43367
C         26.76975        29.55431        -1.70172
C         28.08160        31.66165        -1.83642
C         26.78465        30.89620        -1.81495
C         27.97793        33.10238        -1.38973
C         26.77136        33.80878        -1.37791
C         27.92552        35.89985        -0.87993
C         26.73689        35.17315        -1.09107
C         27.93093        37.31280        -0.57507
C         26.73944        38.06969        -0.44522
C         27.93957        40.12504         0.13955
C         26.74737        39.43102        -0.16731
C         27.97148        41.51577         0.46884
C         26.75666        42.23415         0.69110
C         27.95413        44.34652         0.85760
C         26.74362        43.59211         0.89293
C         27.93765        45.76222         1.01107
C         30.31356        27.34393        -0.81592
C         29.15180        26.68621        -1.25731
C         30.31189        28.74838        -0.66405
C         29.16833        29.49707        -1.05060
C         30.36639        31.64659        -0.81655
C         29.21240        30.93628        -1.12921
C         30.42139        33.07429        -0.96613
C         29.18721        33.79295        -1.11861
C         30.41016        35.91894        -0.90234
C         29.16988        35.20447        -0.92861
C         30.39233        37.33937        -0.76208
C         29.18207        37.98287        -0.45395
C         30.52148        40.11819         0.18930
C         29.18211        39.35016         0.10580
C         30.45446        41.58715         0.30833
C         29.21847        42.23926         0.50954
C         30.39390        44.44432         0.63161
C         29.18869        43.67739         0.66627
C         30.36432        45.86209         0.77903
C         29.10059        46.49545         0.96911
C         32.89651        24.55036        -0.72459
C         31.71479        25.19090        -0.90978
C         32.79184        27.32016        -0.02019
C         31.50977        26.55615        -0.41001
C         32.77800        28.77615        -0.03218
C         31.49481        29.45043        -0.12485
C         32.85492        31.66613        -0.21270
C         31.53389        30.98070        -0.20457
C         32.89124        33.06314        -0.55191
C         31.65046        33.77563        -0.84404
C         32.89926        35.90262        -1.17482
C         31.63275        35.18928        -0.96518
C         32.90453        37.40758        -1.27503
C         31.57488        38.18642        -1.19425
C         32.83380        40.34734        -0.67694
C         31.68619        39.50164        -0.44570
C         32.86118        41.71171        -0.14549
C         31.67690        42.33599         0.23058
C         32.83846        44.50444         0.50879
C         31.64916        43.77821         0.46651
C         32.83837        45.92765         0.61545
C         31.59413        46.61373         0.73121
C         32.80973        48.73576         0.79025
C         31.62530        48.03620         0.81808
C         35.35931        23.08569        -0.08740
C         35.32380        24.50249        -0.11276
C         34.08832        25.22663        -0.25573
C         35.27994        27.37537         0.15210
C         34.07111        26.61465        -0.07786
C         35.23084        28.76348         0.39686
C         33.93414        29.51621         0.57966
C         35.27902        31.66793         0.24667
C         34.02019        30.97688         0.14509
C         35.30185        33.08860        -0.01795
C         34.11371        33.75347        -0.43502
C         35.39248        35.96768        -0.47993
C         34.19766        35.17213        -0.84853
C         35.40490        37.36959        -0.58917
C         34.21549        38.12872        -1.06693
C         35.41252        40.31073        -0.43110
C         34.20240        39.62849        -0.90443
C         35.39827        41.70428        -0.18637
C         34.12407        42.51926        -0.35886
C         35.35307        44.55513         0.43624
C         34.11913        43.72505         0.59423
C         35.32906        45.94720         0.45950
C         34.07209        46.66041         0.58473
C         35.31721        48.80686         0.67384
C         34.07111        48.07554         0.67277
C         35.35790        50.24075         0.55894
C         37.78915        23.09691         0.16612
C         36.54335        22.40483         0.09420
C         37.77633        24.50644         0.12608
C         36.54352        25.22904         0.06746
C         37.73577        27.34646         0.64214
C         36.51240        26.64736         0.19620
C         37.76563        28.84987         0.48114
C         36.44466        29.49848         0.91463
C         37.72973        31.65392         0.68263
C         36.47984        30.97534         0.56647
C         37.67751        33.13249         0.70162
C         36.49510        33.84175         0.18895
C         37.78265        35.97567         0.13220
C         36.54265        35.25219        -0.00713
C         37.79285        37.40009        -0.02457
C         36.58939        38.10982        -0.27915
C         37.82300        40.25199        -0.01298
C         36.59917        39.55272        -0.23885
C         37.82736        41.67115         0.12084
C         36.59474        42.36480         0.12761
C         37.84675        44.52044         0.12288
C         36.62827        43.79190         0.62573
C         37.83077        46.01699         0.15869
C         36.55452        46.70243         0.44675
C         37.83192        48.80204         0.79927
C         36.54519        48.08844         0.62481
C         37.82466        50.32848         0.76132
C         36.51985        50.95425         0.49862
C         40.26228        20.24362         0.28106
C         39.10158        20.95878         0.15075
C         40.25047        23.12180         0.52436
C         39.03407        22.37672         0.32455
C         40.29139        24.48885         0.33751
C         39.06399        25.26143        -0.04354
C         40.31603        27.40545         0.61809
C         39.04337        26.62621         0.62126
C         40.28557        28.80905         0.76618
C         38.99373        29.51090         1.15291
C         40.23577        31.70489         0.80036
C         38.97662        31.00321         0.85212
C         40.26538        33.12257         0.65723
C         39.01366        33.88786         0.73994
C         40.24931        35.97134         0.22809
C         39.00482        35.29666         0.33908
C         40.25737        37.39091         0.12210
C         39.03056        38.10939         0.06903
C         40.29064        40.23342         0.15915
C         39.04885        39.53002         0.06331
C         40.30170        41.66077         0.25157
C         39.08040        42.38496         0.25665
C         40.33808        44.51990         0.34299
C         39.12519        43.80165         0.27190
C         40.33378        45.98203         0.37753
C         39.11588        46.71544         0.34452
C         40.33326        48.83202         0.58951
C         39.11520        48.10562         0.55454
C         40.32418        50.27842         0.51405
C         39.11024        51.01067         0.47570
C         40.33490        53.08126         0.10766
C         39.13896        52.40601         0.24467
C         42.78671        20.21422         0.66854
C         41.47858        20.87585         0.80052
C         42.77509        23.11186         0.93117
C         41.47781        22.38998         0.92048
C         42.76139        24.49450         0.82965
C         41.59852        25.22924         0.20774
C         42.74988        27.42054         0.73681
C         41.53683        26.70418         0.56982
C         42.72211        28.82942         0.80014
C         41.49920        29.53699         0.79388
C         42.71783        31.70363         0.66748
C         41.48615        30.99540         0.79927
C         42.72163        33.11369         0.45341
C         41.47926        33.82133         0.44410
C         42.70668        35.95019         0.08335
C         41.48053        35.24996         0.27639
C         42.69640        37.35511        -0.07120
C         41.49774        38.08557         0.04404
C         42.74983        40.22747         0.21394
C         41.51086        39.52226         0.11017
C         42.75296        41.62498         0.38836
C         41.53799        42.36260         0.34507
C         42.81034        44.48440         0.55121
C         41.56145        43.79230         0.41902
C         42.77644        45.93163         0.80289
C         41.53977        46.69154         0.57429
C         42.82652        48.82889         0.59010
C         41.57312        48.11591         0.59882
C         42.81731        50.26649         0.44798
C         41.56926        50.96925         0.37905
C         42.80295        53.08039         0.12613
C         41.56993        52.38465         0.19720
C         43.94269        20.91094         0.78173
C         45.24625        23.02200         0.82295
C         44.00689        22.35414         0.93915
C         45.32608        24.44855         1.12676
C         43.95706        25.25900         1.13384
C         45.23946        27.35546         0.87896
C         44.00632        26.70285         0.89553
C         45.25502        28.81537         0.76856
C         43.99145        29.56734         1.12271
C         45.17888        31.69160         0.47224
C         43.98470        31.01072         0.67213
C         45.20286        33.11618         0.30388
C         43.95702        33.82305         0.28152
C         45.19347        35.92719        -0.06927
C         43.95541        35.22729         0.08268
C         45.20387        37.33427        -0.27033
C         43.92458        38.08885        -0.52804
C         45.17895        40.18780        -0.09655
C         43.98494        39.51763        -0.02435
C         45.31046        41.58204         0.34111
C         44.01570        42.34062         0.60765
C         45.30075        44.49933         0.47273
C         44.03719        43.81210         0.55322
C         45.32554        45.91611         0.48334
C         44.10580        46.67754         0.79097
C         45.29920        48.80304         0.40273
C         44.07489        48.13663         0.57157
C         45.35623        50.29679         0.62036
C         44.03160        50.99228         0.37437
C         44.00015        52.39491         0.23917
C         47.62227        23.08872         0.18982
C         46.45162        22.39418         0.36930
C         47.73423        24.50414         0.40657
C         46.52425        25.22205         0.78542
C         47.72210        27.34092         0.32796
C         46.46919        26.60843         0.76398
C         47.70421        28.78193         0.76873
C         46.42086        29.50567         0.62258
C         47.73944        31.68866         0.53420
C         46.46040        30.94564         0.18467
C         47.70615        33.12841         0.37854
C         46.44190        33.81204         0.20220
C         47.66714        35.94341        -0.15628
C         46.44043        35.22705         0.00184
C         47.65543        37.34570        -0.37222
C         46.40729        38.02096        -0.41464
C         47.66507        40.24220        -0.69580
C         46.37760        39.48744        -0.60256
C         47.69737        41.68187        -0.34838
C         46.53499        42.35471         0.03731
C         47.74743        44.48580         0.03385
C         46.52773        43.77631         0.20929
C         47.74846        45.92684         0.07791
C         46.52187        46.63697         0.24195
C         47.73978        48.77381        -0.00584
C         46.51976        48.07608         0.23711
C         47.66551        50.19829        -0.27984
C         46.53848        50.91112        -0.07677
C         50.17963        24.58132        -0.08640
C         48.95655        25.18923         0.29627
C         50.24099        27.41036         0.40963
C         48.99468        26.62040         0.79060
C         50.24680        28.81262         0.50404
C         48.98182        29.53496         0.79283
C         50.21904        31.70640         0.82107
C         48.93114        31.01010         0.67650
C         50.19192        33.21296         0.62151
C         48.90413        33.85622         0.33289
C         50.14608        35.90961        -0.21346
C         48.92446        35.24182        -0.02608
C         50.12370        37.30170        -0.69562
C         48.88337        38.08516        -0.56634
C         50.16350        40.21439        -0.75466
C         48.92468        39.47177        -0.66990
C         50.15922        41.65158        -0.67885
C         48.94244        42.36956        -0.43695
C         50.22171        44.46327        -0.27546
C         48.96493        43.77695        -0.23220
C         50.23011        45.89520         0.08846
C         48.96288        46.64727         0.01452
C         50.24126        48.74621        -0.22204
C         48.97127        48.06238        -0.05021
C         51.36011        25.28932        -0.13949
C         52.66387        27.42544        -0.02923
C         51.43262        26.70506         0.09462
C         52.66905        28.84853         0.10946
C         51.45363        29.55652         0.35124
C         52.68249        31.70183         0.39438
C         51.48824        30.98755         0.51946
C         52.73764        33.20549         0.66040
C         51.44355        33.90827         0.29572
C         52.68599        36.05387         0.15263
C         51.41165        35.24382        -0.03426
C         52.68523        37.41113        -0.49312
C         51.42537        38.06631        -0.84220
C         52.62232        40.24426        -0.99736
C         51.38945        39.53581        -0.83561
C         52.59272        41.66333        -1.07469
C         51.38839        42.36525        -0.81064
C         52.68326        44.51501        -0.64295
C         51.40612        43.79944        -0.60793
C         52.76162        45.89919        -0.33443
C         51.53590        46.65549         0.03086
C         51.43434        48.10325        -0.22762
C         55.08749        27.44464        -0.32557
C         53.90542        26.75307        -0.25206
C         55.11312        28.86500        -0.20113
C         53.89409        29.57525         0.01003
C         55.13923        31.69936        -0.05479
C         53.90562        31.00078         0.11961
C         55.14610        33.14750        -0.15181
C         53.95247        33.88664         0.05845
C         55.13762        35.98047        -0.46470
C         53.94053        35.27101        -0.14396
C         55.13672        37.41144        -0.60988
C         53.87763        38.11576        -0.69648
C         55.10061        40.17963        -1.42224
C         53.84428        39.50439        -1.06146
C         55.08268        41.67943        -1.69244
C         53.76081        42.45478        -1.62462
C         55.11491        44.48109        -0.93514
C         53.86923        43.82674        -0.99412
C         55.17632        45.84137        -0.57715
C         54.00760        46.54688        -0.32057
C         56.33029        29.57896        -0.27734
C         56.33510        30.96014        -0.21647
C         56.31793        33.85085        -0.52760
C         56.32336        35.22413        -0.65580
C         56.34705        38.15797        -0.74973
C         56.35162        39.47615        -1.10943
C         56.33811        42.45177        -1.56963
C         56.34173        43.75823        -1.23629
O         50.98576        46.21370         1.32082
O         29.96608        39.40557         1.35772
O         55.09406        40.75238        -2.82149
O         38.21790        33.66832         1.95682
O         43.46271        46.29322         2.05440
O         48.33364        29.07273         2.07225
O         44.82598        41.79715         1.71074
O         31.20615        30.32189         1.06676
O         33.72985        37.79299        -2.41278
O         33.72520        35.32046        -2.23289
O         37.86065        49.59161         2.03514
O         33.51549        40.27567        -2.00984
O         41.28432        21.54887         2.10199
O         50.75677        37.44492        -2.02644
O         31.85393        26.73693         0.98754
O         37.72923        45.25074        -1.12451
O         44.65357        24.84833         2.34323
O         46.84409        39.96510        -1.91741
O         50.27253        32.59984         1.98938
O         38.30047        26.75065         1.86467
O         38.95730        29.38006         2.59006
H         38.01729        29.44276         2.88844
O         33.67250        29.58409         2.05228
H         32.73738        29.90171         2.14162
O         28.46927        31.73498        -3.25984
H         28.53618        30.81357        -3.58890
O         36.83033        43.68885         2.07691
H         36.01593        43.25519         2.43213
O         31.24906        38.57501        -2.56629
H         32.11271        38.77972        -3.00247
O         39.17564        25.58642        -1.50137
H         38.93420        24.77293        -1.99542
O         52.87774        33.39731         2.11203
H         52.03903        33.04840         2.50967
O         48.99223        26.50932         2.23454
H         48.88488        27.42323         2.59903
O         45.61678        50.46338         2.06571
H         44.91884        49.96917         2.54702
O         37.86755        29.09590        -0.94612
H         38.63432        28.59362        -1.29485
O         53.39120        42.72705        -3.01708
H         53.66914        41.93408        -3.53266
O         47.74782        27.34736        -1.12580
H         46.97437        27.86012        -1.44227
O         34.15561        43.13713         1.95150
H         33.81064        43.81142         2.57524
O         41.89412        25.23196        -1.24604
H         41.06220        25.54240        -1.68449
O         34.09905        43.01578        -1.71689
H         33.99523        42.23057        -2.30420
O         46.52115        30.86291        -1.29610
H         45.60217        30.79244        -1.63211
O         36.33573        29.41061         2.36654
H         35.38076        29.54547         2.60254
O         43.79956        38.18015        -1.99138
H         44.60954        38.62096        -2.32988
O         44.01844        29.62936         2.59089
H         44.88578        29.99775         2.86334
O         52.71426        36.29864         1.60964
H         52.83927        35.41318         2.03710
H         27.06965        26.87647        -1.81221
H         25.82800        28.99332        -1.80017
H         25.85022        31.42522        -2.04854
H         25.82225        33.29804        -1.58777
H         25.76401        35.68181        -1.06614
H         25.76933        37.58203        -0.61043
H         25.78639        39.96258        -0.15660
H         25.80442        41.68781         0.71460
H         25.79333        44.11648         1.06818
H         26.97274        46.26772         1.16113
H         29.13517        25.59155        -1.33942
H         29.04599        47.58563         1.08914
H         32.98842        23.51069        -1.06813
H         30.89633        24.67861        -1.43433
H         32.77451        49.83031         0.87387
H         30.68652        48.59878         0.91025
H         34.42509        22.51308        -0.16014
H         34.41285        50.78221         0.41171
H         36.51738        21.31009         0.17226
H         36.47318        52.02799         0.26911
H         40.29020        19.17753         0.01258
H         38.20058        20.42513        -0.18295
H         40.34236        54.16980        -0.04486
H         38.19832        52.97161         0.20400
H         42.80895        19.12948         0.48591
H         42.79848        54.17296         0.00538
H         44.88957        20.35705         0.72053
H         44.93924        52.96405         0.22531
H         48.51132        22.53052        -0.13397
H         46.45187        21.31645         0.15648
H         48.53746        50.69716        -0.72634
H         46.52216        51.97829        -0.33840
H         50.19859        23.51596        -0.35759
H         50.23361        49.83179        -0.39077
H         52.26983        24.74822        -0.43157
H         52.35000        48.66904        -0.45309
H         56.03436        26.90870        -0.48396
H         53.92637        25.65976        -0.34763
H         56.15161        46.34534        -0.52416
H         54.06692        47.61305        -0.06268
H         57.27227        29.02777        -0.40836
H         57.29709        31.48182        -0.29971
H         57.25304        33.30806        -0.71538
H         57.25890        35.72618        -0.93557
H         57.31077        37.65918        -0.57614
H         57.30831        39.99694        -1.24767
H         57.28188        41.94271        -1.80939
H         57.29074        44.31138        -1.17949
