         280
 CSIRO Nanostructure Databank - Neutral Graphene Oxide Data Set
C         30.46147        31.38539         0.06034
C         30.32637        32.62496         0.10870
C         30.45214        35.90610        -0.14019
C         30.50968        37.12406         0.11670
C         30.80096        39.93639         1.71722
C         30.91432        41.13530         2.02537
C         32.92135        28.68328         0.50977
C         31.72310        29.11581         0.24898
C         32.86302        31.34073         0.45176
C         31.53383        30.47198         0.16235
C         32.75817        32.77387        -0.14620
C         31.49009        33.55728         0.37541
C         32.60933        35.43145        -0.85556
C         31.46858        34.90241        -0.28394
C         32.66021        37.59194        -0.67923
C         31.61187        38.03909         0.10129
C         32.83166        40.19559         0.40362
C         31.91803        39.14150         1.08882
C         32.92279        41.62202         0.89681
C         32.04901        42.01349         2.05647
C         32.84404        43.52341         4.04946
C         32.43360        42.83109         3.07815
C         35.31194        27.36596         1.77282
C         35.36331        28.59450         1.14265
C         34.19756        29.16309         0.58054
C         35.38241        31.42196         0.27388
C         34.14141        30.60695        -0.03945
C         35.35617        32.84646        -0.28510
C         34.06100        33.59887         0.11598
C         35.23318        35.86630        -0.52195
C         33.99555        34.95651        -0.62859
C         35.24769        37.36133        -0.55312
C         34.02223        38.18236        -0.69325
C         35.36602        40.26280        -0.04341
C         34.05649        39.61727        -0.25497
C         35.36042        41.70045         0.15670
C         34.18716        42.36608         0.60930
C         35.38491        44.48436         0.43939
C         34.20663        43.76751         0.74346
C         35.49570        45.92794         0.58506
C         37.66202        27.55852        -0.42321
C         35.25406        26.23501         2.32089
C         37.70865        28.76459         0.22821
C         36.65138        29.38611         1.14918
C         37.77612        31.68747         0.90651
C         36.51094        30.86257         0.75238
C         37.71513        33.12363         0.44207
C         36.54271        33.71810         0.10840
C         37.77530        35.93051        -0.18763
C         36.44452        35.24623         0.20721
C         37.69024        37.42369        -0.00289
C         36.47235        38.05893        -0.31055
C         37.75281        40.21898        -0.71784
C         36.49794        39.52837        -0.31821
C         37.74138        41.72115        -0.66688
C         36.53629        42.43117        -0.15728
C         37.69163        44.59861        -0.69931
C         36.54430        43.82977        -0.05807
C         37.84417        46.06343        -0.17158
C         36.61287        46.45800         0.37252
C         39.98404        25.12802        -2.02014
C         38.91826        25.65908        -1.59036
C         40.14916        27.50336        -0.73556
C         38.89199        26.97293        -0.97056
C         40.26934        28.78883         0.06099
C         38.96089        29.54791         0.04286
C         40.25051        31.75738         0.47771
C         38.98398        31.00979         0.29741
C         40.22835        33.11550         0.67951
C         38.96809        33.87613         0.60873
C         40.14021        36.04217         0.89174
C         38.95321        35.24752         0.50317
C         40.17232        37.53480         0.68618
C         38.89231        38.31552         0.33224
C         40.37690        40.21560        -0.74722
C         39.03599        39.37087        -0.78472
C         40.25324        41.73453        -0.53745
C         39.03683        42.44757        -0.59353
C         40.22777        44.58847        -0.71605
C         39.02236        43.86109        -0.62278
C         40.13925        46.05443        -1.15434
C         38.99374        46.76337        -0.41460
C         40.27646        48.84869        -0.60890
C         39.29638        48.13441        -0.26867
C         42.60554        24.99128        -2.16973
C         41.33188        25.41977        -1.82168
C         42.62815        27.59224        -1.29007
C         41.43544        26.71556        -0.89526
C         42.60157        29.06258        -0.95761
C         41.41495        29.67598        -0.36218
C         42.64863        31.89126        -0.20375
C         41.55904        30.99376         0.36991
C         42.65557        33.29559         0.28895
C         41.48511        33.87633         0.67828
C         42.69204        36.09778         1.22956
C         41.39741        35.25571         1.29732
C         42.65598        37.57550         1.01433
C         41.50301        38.21970         0.57455
C         42.70535        40.29512         0.04403
C         41.52502        39.59402         0.06670
C         42.73470        41.79990        -0.06917
C         41.44645        42.48393        -0.45956
C         42.74391        44.66442        -0.38173
C         41.44571        43.89504        -0.57528
C         42.78279        46.06329        -0.99492
C         41.48614        46.82186        -1.19339
C         42.81572        48.84899        -1.13873
C         41.52069        48.34548        -1.03737
C         43.70302        25.55699        -1.83386
C         45.16173        27.54100        -1.20101
C         43.96752        26.88330        -1.43481
C         45.19828        28.97037        -0.69714
C         43.91162        29.72686        -0.63516
C         45.24149        31.93338        -0.57442
C         43.91239        31.22897        -0.67199
C         45.20796        33.37788        -0.14335
C         43.87219        34.14855        -0.00882
C         45.25493        36.13021         0.75746
C         43.98218        35.39467         0.86386
C         45.30970        37.55116         1.24479
C         43.96100        38.29677         1.06720
C         45.24291        40.15784        -0.15378
C         43.97146        39.70062         0.55169
C         45.25806        41.68230        -0.38639
C         43.98991        42.41212        -0.69508
C         45.20690        44.63987        -0.42799
C         43.96810        43.92368        -0.95589
C         45.27430        46.07212        -0.61691
C         44.10183        46.79607        -0.84452
C         43.87783        48.15321        -1.11982
C         47.55811        27.65051        -0.98637
C         46.49553        27.08021        -1.32042
C         47.76523        29.00546        -0.60840
C         46.48628        29.75075        -0.63785
C         47.81257        31.86567        -0.35519
C         46.48496        31.10623        -0.43522
C         47.68950        33.12466         0.48759
C         46.41097        33.87183         0.61155
C         47.76851        36.01797         0.75440
C         46.47715        35.31433         1.13151
C         47.74478        37.43985         0.57666
C         46.57459        38.19273         0.65005
C         47.75228        40.27129        -0.01022
C         46.57104        39.59425         0.27900
C         47.78187        41.77397         0.02008
C         46.44554        42.48213         0.07178
C         48.29864        44.68233        -1.49296
C         46.25932        43.95233         0.15842
C         47.73372        46.00070        -1.26158
C         46.63625        46.44882        -0.91169
C         50.15010        28.99520         0.28246
C         48.91558        29.59890        -0.11257
C         50.01134        31.61017         0.88070
C         48.94537        31.01195         0.21816
C         50.10244        33.06032         0.91244
C         48.97142        33.84897         0.74191
C         50.23688        36.03271         0.75831
C         48.97082        35.29626         0.72571
C         50.28964        37.38489         0.57445
C         49.02709        38.10221         0.07537
C         50.35846        40.30002         0.11842
C         49.02107        39.58659         0.49520
C         50.26153        41.84795         0.31931
C         49.07487        42.43089        -0.50859
C         50.26280        44.48527         0.05187
C         49.08095        44.00355        -0.56419
C         51.15760        29.40436         0.87831
C         52.33079        31.57015         1.67376
C         51.10278        30.71535         1.63591
C         52.38994        32.80111         1.64029
C         51.43940        33.74237         1.03835
C         52.53162        36.12256         1.50475
C         51.49485        35.22165         0.99894
C         52.52272        37.36012         1.52170
C         51.64854        38.15931         0.56127
C         52.69736        40.52282         0.61614
C         51.52049        39.63089         0.95942
C         52.69628        41.75640         0.51286
C         51.65190        42.64277        -0.06811
C         51.35141        44.02836         0.48125
O         33.96546        39.28813        -1.68864
O         43.56696        35.52630         2.27105
O         45.45922        33.02291        -1.53590
O         39.89910        36.98166         2.02762
O         32.45926        36.59386        -1.64962
O         42.23811        46.28186        -2.32657
O         40.98116        40.11286        -2.10962
O         42.95831        31.76162        -1.63032
O         51.86296        34.43035        -0.17120
O         38.83261        30.50760        -1.07597
O         34.89227        35.16746        -1.76844
O         44.47097        29.14521         0.58424
O         45.22944        39.48136        -1.39818
O         42.41422        28.54888        -2.35237
O         37.54224        41.00775        -1.93762
O         32.15661        41.23987        -0.31106
O         44.78637        41.85072        -1.77067
O         46.82785        32.91603         1.65769
O         47.17188        42.11779         1.31534
O         43.95019        39.47396         1.98807
O         50.61555        30.49570         2.92864
H         51.26204        29.96595         3.43797
O         46.48964        35.22760         2.58613
H         46.72871        34.29523         2.81481
O         51.29692        39.74433         2.34770
H         51.82705        39.04883         2.79867
O         40.51182        28.41452         1.46383
H         41.17875        27.68193         1.45970
O         50.65395        40.05292        -1.26337
H         51.62758        40.10637        -1.39123
O         43.87992        44.10530        -2.37714
H         44.43736        43.40906        -2.79668
O         40.10241        40.85391        -3.02282
H         40.66668        40.90139        -3.83285
O         36.54027        26.81910        -0.54399
H         36.76333        25.95178        -0.94398
O         45.55759        37.54856         2.67406
H         45.00933        36.83231         3.07029
O         41.19418        34.92847         2.69420
H         40.90973        35.75224         3.15023
O         35.41329        32.64801        -1.71535
H         35.48985        33.53974        -2.14229
O         32.96416        31.39846         1.86702
H         32.19771        31.89739         2.22872
O         32.68732        38.58175         2.16132
H         32.10978        38.00270         2.70106
O         37.14599        29.29619         2.49713
H         37.84087        29.98208         2.63578
O         42.90646        42.20119         1.36016
H         43.09307        41.40114         1.90675
O         36.28794        35.55079         1.61325
H         35.54929        34.99082         1.95799
O         34.04898        30.44320        -1.46341
H         34.92109        30.64538        -1.87094
O         41.76937        26.21263         0.42788
H         41.09614        25.54699         0.68748
O         47.04464        44.58675         1.03835
H         47.59413        43.90551         1.50427
O         34.19191        33.86517         1.52982
H         33.29716        33.89063         1.94995
O         39.70354        46.00573        -2.54189
H         40.51190        45.85138        -3.08777
O         42.00874        30.69267         1.72746
H         41.43328        29.96580         2.07310
O         49.96869        42.10605         1.68729
H         50.67611        41.69826         2.23867
O         37.99406        35.73024        -1.61341
H         38.37739        36.55635        -1.99156
O         31.54309        33.72859         1.80925
H         30.74175        34.22580         2.08344
O         38.56459        39.09192         1.51086
H         38.64007        38.47955         2.27949
O         48.19175        32.27325        -1.68548
H         48.21549        31.48630        -2.26784
O         48.88115        39.58566         1.92565
H         48.77470        40.51807         2.22414
O         43.60284        34.73795        -1.30946
H         43.85317        34.06545        -1.98788
O         52.20758        38.08225        -0.73374
H         52.31813        37.13761        -0.97428
O         49.00275        37.96579        -1.35533
H         49.65791        38.60022        -1.73367
O         37.32881        44.72729        -2.08408
H         38.08718        45.15417        -2.55779
O         38.99704        38.61816        -2.00737
H         38.95364        39.27479        -2.74417
O         32.57209        32.68805        -1.55588
H         33.14190        31.95504        -1.90424
O         38.08841        31.78186         2.33122
H         37.38862        32.31210         2.76803
O         51.78267        42.66560        -1.47606
H         52.56227        43.21097        -1.71141
O         49.15134        41.98597        -1.87455
H         50.09283        42.07344        -2.16373
O         42.91020        44.88770         1.03205
H         42.87917        44.00802         1.48644
O         33.10288        44.44204         1.10564
H         33.31900        45.39706         1.17088
O         47.64749        44.02728        -2.47135
H         48.04318        43.11602        -2.56599
