         324
 CSIRO Nanostructure Databank - Neutral Graphene Oxide Data Set
C         30.18756        57.26632         0.22645
C         30.32363        58.68138        -0.02730
C         29.15859        59.47495         0.11710
C         30.40688        61.53839        -0.07483
C         29.19392        60.86965         0.04357
C         32.74475        52.95960         0.19071
C         32.69073        54.37896         0.05004
C         31.41026        55.00425         0.24477
C         32.94612        57.32061        -0.53843
C         31.11323        56.30603        -0.20061
C         32.84820        58.69880        -0.25052
C         31.57943        59.37214        -0.21254
C         32.86783        61.49031        -0.09323
C         31.61929        60.80322        -0.14415
C         35.19196        48.55502         0.15397
C         35.14116        50.01539         0.35443
C         33.91274        50.80176         0.15674
C         35.19630        52.94407        -0.26079
C         33.92742        52.18984         0.09325
C         35.19302        54.35195         0.33537
C         33.93385        55.10684        -0.06049
C         35.27829        57.22521         0.12109
C         34.04897        56.51595        -0.16312
C         35.27143        58.62837         0.16617
C         34.07180        59.37976         0.01449
C         35.34405        61.51141         0.13291
C         34.08930        60.81806         0.04074
C         37.69124        44.29907        -0.09863
C         37.65106        45.70698        -0.04290
C         36.43610        46.43079         0.00985
C         37.67525        48.59322        -0.21915
C         36.38392        47.85494         0.07083
C         37.72355        50.05395         0.16540
C         36.46165        50.78120         0.35992
C         37.68037        52.87766        -0.10357
C         36.48404        52.21815         0.05616
C         37.65603        54.32908        -0.38835
C         36.46062        55.09174        -0.02926
C         37.78547        57.16814         0.05293
C         36.51969        56.47359         0.08416
C         37.82502        58.59698         0.40235
C         36.51635        59.36155         0.46975
C         37.81379        61.47997         0.31357
C         36.54777        60.83091         0.29097
C         40.24411        40.07098        -0.17334
C         40.20824        41.46686        -0.21964
C         38.97298        42.17883        -0.17135
C         40.17004        44.31541        -0.03765
C         38.91710        43.57916        -0.11876
C         40.15898        45.69547         0.12480
C         38.91755        46.43485         0.06923
C         40.16235        48.56246         0.37132
C         38.90886        47.81484         0.13215
C         40.17322        50.04971         0.34383
C         38.90297        50.76733         0.14745
C         40.19651        52.87790        -0.07139
C         38.95290        52.20308         0.02576
C         40.25072        54.30504        -0.23665
C         38.99710        55.06075        -0.44156
C         40.24476        57.20316        -0.14660
C         38.98610        56.50411        -0.15851
C         40.24616        58.64853        -0.08967
C         39.07294        59.34030         0.16067
C         40.27801        61.49188         0.27327
C         39.03606        60.79107         0.24581
C         42.71148        35.80186         0.18699
C         42.69611        37.21475        -0.05860
C         41.48999        37.94513        -0.04661
C         42.70718        40.04501        -0.42546
C         41.47484        39.34594        -0.21526
C         42.71316        41.49163        -0.51261
C         41.45364        42.21035        -0.32674
C         42.63714        44.38601        -0.43091
C         41.41337        43.59562        -0.20430
C         42.70409        45.76683         0.10244
C         41.41813        46.43551         0.52012
C         42.66568        48.63636         0.42961
C         41.44376        47.86613        -0.01505
C         42.67362        50.00250         0.41404
C         41.45346        50.76587         0.19362
C         42.73588        52.84233         0.00517
C         41.45056        52.14401         0.06327
C         42.77813        54.29980        -0.43367
C         41.45350        55.02749        -0.23742
C         42.73141        57.17803        -0.22260
C         41.43489        56.45334        -0.25441
C         42.78041        58.66898        -0.26576
C         41.47929        59.43830        -0.50619
C         42.72589        61.50907         0.21247
C         41.49673        60.84076         0.06868
C         45.20185        33.18223         1.21706
C         43.95659        33.78088         0.85315
C         45.21482        35.86259         0.33878
C         43.90579        35.10075         0.38170
C         45.17645        37.11320        -0.54177
C         43.91801        37.91526        -0.30026
C         45.19932        39.97409        -0.80699
C         43.91506        39.29755        -0.50202
C         45.20770        41.48262        -0.86753
C         43.91488        42.18218        -0.67018
C         45.21214        44.38847        -0.53728
C         43.91622        43.65078        -0.72672
C         45.15651        45.69529         0.19782
C         43.87057        46.44248         0.26133
C         45.17478        48.60839         0.57975
C         43.88478        47.84973         0.85492
C         45.19103        49.97988         0.52136
C         43.91771        50.76552         0.81793
C         45.20417        52.89099         0.04095
C         43.90168        52.18611         0.27724
C         45.17965        54.35494         0.38895
C         43.95631        55.01269         0.20491
C         45.07434        57.23672         0.84177
C         43.85218        56.45567         0.45245
C         45.14613        58.69455         0.57032
C         43.98764        59.38485         0.23338
C         45.19633        61.51379         0.34255
C         43.96902        60.82796         0.23562
C         46.40294        33.75092         0.89886
C         47.68512        35.78363         0.10628
C         46.42613        34.96451        -0.00091
C         47.68281        37.17131        -0.08142
C         46.45729        37.89172        -0.33745
C         47.68242        40.01749        -0.38830
C         46.47024        39.27439        -0.49469
C         47.67665        41.45970        -0.41980
C         46.49111        42.17077        -0.59684
C         47.73407        44.31378        -0.01704
C         46.50845        43.63947        -0.50529
C         47.73459        45.67825         0.24577
C         46.44830        46.36455         0.53270
C         47.73728        48.58342         0.63103
C         46.43376        47.84529         0.75228
C         47.65385        50.01918         0.34392
C         46.44744        50.70474         0.37934
C         47.61115        52.87196         0.56461
C         46.44309        52.15512         0.42279
C         47.62826        54.27678         1.11074
C         46.35417        55.02742         0.78496
C         47.64181        57.24359         1.09985
C         46.33845        56.46907         1.07239
C         47.63178        58.69106         0.77439
C         46.41538        59.38109         0.63634
C         47.65052        61.50284         0.32230
C         46.41726        60.81822         0.42905
C         48.90005        37.91836        -0.04042
C         50.15136        40.04201        -0.13738
C         48.91608        39.31137        -0.18608
C         50.18494        41.43261        -0.13884
C         48.93076        42.17580        -0.19513
C         50.20973        44.24892         0.44122
C         48.94747        43.55048        -0.00972
C         50.18040        45.71483         0.10595
C         48.98749        46.41559         0.21920
C         50.16158        48.58765         0.19673
C         48.98659        47.86349         0.27744
C         50.18268        50.03238         0.27673
C         48.89774        50.72588         0.05791
C         50.15654        52.92729         0.41326
C         48.88011        52.23688         0.23848
C         50.12058        54.36604         0.52326
C         48.90902        55.02798         0.76597
C         50.19435        57.24373         0.63510
C         48.93262        56.48032         0.99128
C         50.07005        58.66881         0.29438
C         48.87696        59.35901         0.45243
C         50.08883        61.49878         0.07277
C         48.86584        60.80916         0.25345
C         51.42528        42.15305        -0.11553
C         52.69151        44.27176        -0.02049
C         51.48136        43.54334         0.02287
C         52.72097        45.69181        -0.02969
C         51.43530        46.39380        -0.19621
C         52.68922        48.59857         0.21812
C         51.43463        47.93225        -0.13169
C         52.62814        49.99382         0.80713
C         51.35618        50.73796         0.43855
C         52.59962        52.87998         0.27470
C         51.35952        52.19106         0.37480
C         52.55279        54.30669        -0.21416
C         51.34769        55.08863         0.26168
C         52.56582        57.19691        -0.17732
C         51.37160        56.47552         0.17723
C         52.54787        58.61248        -0.27618
C         51.22330        59.33018        -0.41871
C         52.51994        61.47827        -0.27310
C         51.29917        60.81554        -0.15018
C         53.89075        46.46024         0.04128
C         55.13093        48.57936         0.69079
C         53.87154        47.88151         0.22007
C         55.12974        50.07826         0.45376
C         53.88799        50.78195         0.54128
C         55.07352        52.96085         0.43797
C         53.82369        52.17998         0.36896
C         55.06565        54.39635         0.09063
C         53.84240        55.07017        -0.04979
C         55.04493        57.16806        -0.40589
C         53.81978        56.47461        -0.22875
C         54.99307        58.61184        -0.71794
C         53.73466        59.33663        -0.46552
C         54.97328        61.48541        -0.46976
C         53.75347        60.77748        -0.45616
C         56.31901        50.73862         0.20471
C         57.58168        52.97075        -0.06193
C         56.41496        52.19250         0.32668
C         57.57905        54.38091         0.02091
C         56.29211        55.09827         0.01960
C         57.56030        57.19093        -0.40693
C         56.26450        56.48286        -0.27548
C         57.58103        58.67712        -0.66019
C         56.28230        59.40132        -0.83586
C         57.43110        61.52021        -0.24896
C         56.24029        60.84756        -0.51513
C         58.77525        55.11050         0.05643
C         60.00026        57.32631         0.12675
C         58.71989        56.57846         0.35266
C         59.99285        58.72563        -0.00786
C         58.76486        59.43431        -0.23653
C         59.89459        61.56098         0.11765
C         58.69783        60.84417        -0.13247
C         61.18361        59.50012         0.17036
C         61.11723        60.88568         0.23264
O         46.96476        56.87061         2.35963
O         57.87553        57.69252        -1.72516
O         46.02514        44.36538        -1.73988
O         55.84881        52.67861         1.62172
O         45.31876        52.85022        -1.52964
O         45.69422        45.61473         1.57991
O         43.12591        44.24161        -1.81619
O         48.82934        51.59572        -1.12006
O         35.79905        50.43129         1.63488
O         37.18075        58.90352         1.69733
O         49.86994        56.92401         2.04019
O         38.27191        54.69310        -1.66773
O         31.93567        56.73774        -1.28141
O         45.22035        40.65686        -2.10491
O         44.04686        56.88657         1.84634
O         47.18810        48.22556         1.95615
O         40.17514        49.28173         1.63625
O         51.40226        47.22487        -1.40866
O         55.56491        59.00502        -2.03583
O         43.13401        57.84989        -1.46300
O         43.84728        47.72526         2.30656
H         44.57239        47.10340         2.55380
O         46.35976        34.44767        -1.35787
H         46.03587        35.17838        -1.93946
O         50.89558        59.20563        -1.85543
H         51.58972        59.68884        -2.35365
O         41.47120        47.76005        -1.46134
H         41.55099        48.65830        -1.84473
O         55.21254        48.38264         2.11810
H         54.39049        48.76829         2.50395
O         43.89358        50.88409         2.27062
H         43.81182        49.97206         2.63450
O         35.16331        53.13007        -1.70230
H         35.25381        52.25610        -2.13541
O         35.16039        54.20367         1.78287
H         35.20491        55.09666         2.18455
O         52.59081        49.78123         2.27428
H         52.59153        50.66543         2.70051
O         45.12126        36.71738        -1.94982
H         45.12335        37.53628        -2.49075
O         41.38929        46.52692         1.96336
H         41.33461        45.62402         2.33727
O         46.54376        53.50664        -1.89913
H         47.20397        52.76403        -1.95062
O         47.65982        54.14494         2.57118
H         47.52876        55.05615         2.93452
O         37.70564        48.65709        -1.70939
H         37.66912        47.73180        -2.03755
O         50.19864        44.18261         1.91437
H         50.20727        43.23383         2.16347
O         58.37341        56.75053         1.78540
H         58.98010        56.18608         2.30959
O         45.42334        36.36538         1.68547
H         45.42630        35.59518         2.29271
O         43.00031        54.33021        -1.87581
H         43.87088        53.88889        -2.04866
O         52.38611        54.17314        -1.67963
H         52.35165        55.07912        -2.05547
O         41.34344        59.63403        -1.94175
H         41.81704        58.88123        -2.37057
H         29.32534        56.94634         0.83081
H         28.19486        58.97010         0.27725
H         30.44172        62.63705        -0.06582
H         28.25844        61.44086         0.12273
H         31.79821        52.42949         0.38190
H         30.65124        54.43840         0.80536
H         32.85811        62.59120        -0.08735
H         34.23816        48.00373         0.14491
H         32.94626        50.27450         0.21112
H         35.34739        62.60821         0.04481
H         36.74592        43.73699        -0.13782
H         35.49105        45.86872         0.06690
H         37.83389        62.58055         0.30690
H         39.30400        39.50902        -0.06978
H         38.03548        41.60247        -0.17299
H         40.27537        62.56341         0.52630
H         41.75030        35.27869         0.30882
H         40.54086        37.41571         0.12423
H         42.72082        62.59298         0.40634
H         45.17751        32.22795         1.76487
H         43.02254        33.22632         1.02576
H         45.20655        62.61203         0.28306
H         47.34740        33.26043         1.17772
H         48.64864        35.26341         0.22523
H         47.64565        62.59620         0.20047
H         49.84663        37.38248         0.12539
H         51.09285        39.47719        -0.06560
H         50.09125        62.59856         0.11823
H         52.35773        41.58634        -0.26279
H         53.64255        43.72076        -0.09138
H         52.54630        62.57547        -0.18739
H         54.86014        45.94487         0.12104
H         56.04000        48.11146         0.23717
H         54.94334        62.57690        -0.33109
H         57.23106        50.16499        -0.01948
H         58.51714        52.44499        -0.30651
H         57.40233        62.60446        -0.06332
H         59.74203        54.58898        -0.00654
H         60.95312        56.81832         0.34570
H         59.86189        62.65700         0.19234
H         62.14441        58.98332         0.30472
H         62.03730        61.46482         0.39522
