         207
 CSIRO Nanostructure Databank - Neutral Graphene Oxide Data Set
C         30.50709        31.95771        -0.48030
C         30.60815        33.13156        -0.03328
C         30.43467        35.94471         1.63751
C         30.52431        37.17250         1.66266
C         30.46859        40.30827         1.44121
C         30.38505        41.55347         1.31518
C         32.86499        29.05351        -0.49426
C         31.73655        29.60342        -0.52779
C         32.83876        31.63459        -0.82712
C         31.56115        31.01398        -0.65076
C         32.83428        33.67834        -0.11408
C         31.58260        34.03955         0.42352
C         32.88453        35.85931         1.66069
C         31.55775        34.93673         1.64168
C         32.86600        37.35623         1.52359
C         31.64309        38.06944         1.55233
C         32.80231        40.22550         1.13492
C         31.60170        39.46632         1.39548
C         32.75949        41.65169         0.92683
C         31.50055        42.37778         1.04150
C         32.71944        44.33310         0.58942
C         31.62956        43.77829         0.84999
C         35.67345        27.60364        -1.03062
C         35.41795        28.98646        -0.74927
C         34.17355        29.60939        -0.55400
C         35.31241        31.82977        -0.34140
C         34.10951        31.04940        -0.58785
C         35.28971        33.20166         0.14307
C         34.10234        33.91880         0.47003
C         35.36455        35.98508         0.98558
C         34.15984        35.18726         1.23507
C         35.32205        37.38727         1.08211
C         34.06630        38.08247         1.25595
C         35.25005        40.22067         0.77203
C         34.03818        39.50548         1.07283
C         35.20105        41.61287         0.48461
C         33.98464        42.33806         0.57798
C         35.18001        44.49342         0.11184
C         34.01013        43.78596         0.37931
C         35.41785        45.88670         0.12157
C         37.96724        27.65132        -1.68035
C         36.73729        26.99571        -1.23414
C         37.86683        29.18914        -1.36310
C         36.59870        29.77549        -0.85308
C         37.82134        31.80673        -0.13316
C         36.56355        31.14895        -0.45421
C         37.78833        33.16028         0.37353
C         36.54647        33.85032         0.46923
C         37.79930        35.96410         0.87568
C         36.56501        35.25663         0.76713
C         37.77890        37.40348         0.87566
C         36.53671        38.11862         0.89060
C         37.73639        40.24128         0.50454
C         36.50645        39.52763         0.72373
C         37.74021        41.62042         0.19063
C         36.43243        42.27040        -0.01030
C         37.74987        44.50312        -0.25033
C         36.44847        43.78987        -0.22547
C         37.78155        45.93430        -0.27387
C         36.48938        46.50837        -0.04140
C         40.57716        24.83496        -1.16422
C         39.69832        25.79078        -1.41807
C         40.45782        28.02974        -2.12503
C         39.29830        27.03484        -1.67120
C         40.36146        29.25044        -1.23484
C         39.14238        29.85388        -1.00309
C         40.27355        31.75032         0.12257
C         39.05093        31.13053        -0.30887
C         40.19698        33.01219         0.78253
C         38.99756        33.80842         0.79604
C         40.21419        36.02907         1.19425
C         39.01619        35.23806         1.01771
C         40.23467        37.43605         0.92654
C         38.98891        38.13276         0.81021
C         40.19821        40.26176         0.47317
C         38.98316        39.55289         0.61146
C         40.20278        41.63014         0.12284
C         38.95509        42.32593        -0.01261
C         40.22103        44.40786        -0.45078
C         38.97590        43.75427        -0.26131
C         40.21658        45.84722        -0.80996
C         38.97037        46.62689        -0.54743
C         40.28674        48.64189        -0.78847
C         39.19976        48.00409        -0.67003
C         43.10902        24.77522        -1.50463
C         41.75066        24.99120        -1.89416
C         42.94424        27.82417        -1.51932
C         41.79769        27.32604        -2.09788
C         42.91987        29.30306        -1.13499
C         41.58869        29.66317        -0.44602
C         42.73906        31.75968         0.34934
C         41.53991        31.11154        -0.01965
C         42.66122        32.99608         1.04634
C         41.39220        33.43008         1.40761
C         42.69710        36.05758         1.41757
C         41.42898        35.50715         1.68062
C         42.70730        37.44582         1.04209
C         41.46339        38.12543         0.90207
C         42.72828        40.21408         0.35545
C         41.47847        39.62358         0.94275
C         42.70108        41.56267        -0.07379
C         41.45874        42.29764        -0.12287
C         42.71895        44.32362        -0.74100
C         41.46325        43.68515        -0.43102
C         42.80487        45.83617        -0.62269
C         41.52280        46.58118        -0.99905
C         42.87416        48.62801        -1.00455
C         41.57780        48.12591        -0.94785
C         43.98983        25.66211        -1.51832
C         45.30642        27.64628        -0.76361
C         44.17278        27.06073        -1.31909
C         45.28785        29.01004        -0.21749
C         44.10494        29.75506        -0.30394
C         45.15094        31.66075         0.84527
C         44.03382        31.07532         0.27916
C         45.14589        33.03979         1.38769
C         43.85255        33.77285         1.51782
C         45.14280        35.92415         1.30564
C         43.91007        35.27528         1.46126
C         45.20229        37.45013         1.34042
C         43.93323        38.13149         0.89501
C         45.18364        40.12217         0.08411
C         43.94210        39.48893         0.44683
C         45.16625        41.44936        -0.40621
C         43.92392        42.18317        -0.47461
C         45.11539        44.14178        -1.46380
C         43.89381        43.56387        -0.84774
C         45.11938        45.66210        -1.82166
C         44.02583        46.48265        -1.31445
C         43.86113        47.83150        -1.26938
C         47.57853        27.53218         0.02559
C         46.57078        27.03851        -0.51641
C         47.66152        28.85343         0.57879
C         46.45231        29.54890         0.44916
C         47.66115        31.66316         1.20518
C         46.36753        30.85870         1.19022
C         47.63541        33.04347         1.33961
C         46.40934        33.79841         1.31523
C         47.66154        35.92399         1.15903
C         46.38836        35.19914         1.28893
C         47.65514        37.32968         0.79554
C         46.43979        38.04651         0.69412
C         47.65802        40.03535        -0.11697
C         46.42608        39.38701         0.21997
C         47.65092        41.38673        -0.61466
C         46.41292        42.08373        -0.78244
C         47.62692        44.02773        -1.64354
C         46.39606        43.40545        -1.31801
C         47.44767        45.37990        -2.07220
C         46.49192        46.16568        -1.95288
C         50.13119        28.93092         1.18833
C         48.84503        29.50081         1.07616
C         50.15254        31.60385         1.49873
C         48.89795        30.91197         1.29418
C         50.15062        33.03465         1.57878
C         48.85801        33.79824         1.80228
C         50.11653        35.93298         1.21193
C         48.86244        35.24034         1.32445
C         50.12638        37.30891         0.80403
C         48.89664        38.00011         0.54537
C         50.14409        40.04069        -0.15717
C         48.89787        39.35754         0.09109
C         50.15836        41.37657        -0.68904
C         48.89635        42.02918        -0.93163
C         50.14513        43.88105        -1.69767
C         48.85109        43.36324        -1.46074
C         51.24848        29.46054         1.40476
C         52.55092        31.69291         1.64246
C         51.41360        30.86377         1.52659
C         52.48120        32.94831         1.66288
C         51.34474        33.78661         1.62918
C         52.45858        36.04343         1.34017
C         51.33099        35.21568         1.47234
C         52.48394        37.25015         0.98901
C         51.36035        38.02708         0.64022
C         52.49041        40.14787        -0.14504
C         51.36476        39.35358         0.14399
C         52.56800        41.30405        -0.62889
C         51.42020        42.05782        -0.96077
C         51.26596        43.36025        -1.49972
O         32.83842        32.95077        -1.32023
O         44.48051        33.17292         2.71698
O         33.77641        35.29777         2.67437
O         44.79859        44.66667        -2.81023
O         40.83063        46.09284        -2.16247
O         37.74957        28.62375        -2.71038
O         36.28056        42.85964        -1.34691
O         41.33237        34.35129         2.45605
O         41.75606        26.12545        -2.83040
O         45.33504        37.79523         2.77031
H         46.08279        37.27239         3.13178
O         46.17247        30.48880         2.61076
H         45.70446        31.23419         3.05058
O         48.72154        33.89607         3.26436
H         48.64323        32.98466         3.61909
O         41.54055        39.97632         2.38842
H         40.84253        39.46055         2.84627
O         42.95376        30.06642        -2.37032
H         43.76984        29.83400        -2.86000
O         31.54568        34.11907         2.78181
H         31.89938        34.62095         3.54580
O         42.94406        46.08220         0.80702
H         43.74567        45.62372         1.13522
O         41.57242        28.84912         0.76731
H         40.82078        29.13797         1.32634
O         40.19089        28.40809        -3.47415
H         40.41010        27.64534        -4.05027
