         252
 CSIRO Nanostructure Databank - Neutral Graphene Oxide Data Set
C         30.38586        31.84700         0.07982
C         30.19317        33.02475         0.38713
C         30.70210        36.06871         1.85145
C         30.62267        37.29606         2.02026
C         30.59563        40.47640         1.38117
C         30.53551        41.69295         1.02035
C         32.63731        29.14666        -0.12705
C         31.56210        29.65617        -0.45071
C         32.68844        31.79230        -0.74026
C         31.26178        31.05795        -0.86069
C         32.81834        33.15685        -0.69438
C         30.98239        34.21000         0.17818
C         32.67330        36.01099         0.44867
C         31.42374        35.25184         0.92015
C         32.77426        37.44603         0.88802
C         31.83329        38.18204         1.88522
C         32.86532        40.26476         0.94999
C         31.68034        39.60142         1.39194
C         32.88105        41.64908         0.50362
C         31.62722        42.42741         0.54483
C         32.87781        44.21445        -0.36038
C         31.79430        43.75565         0.06729
C         35.40719        27.57050         0.35018
C         35.16948        28.95068         0.03031
C         33.99590        29.59095        -0.20105
C         35.23696        31.74343        -0.60071
C         33.96736        30.97094        -0.87661
C         35.24287        33.18335        -0.41106
C         34.02419        33.89880        -0.30462
C         35.19466        35.95222         0.42262
C         33.97401        35.27647         0.14954
C         35.27159        37.34721         0.72979
C         34.08861        38.12622         0.86529
C         35.36998        40.30661         0.91433
C         34.09438        39.51401         0.95212
C         35.27752        41.28136        -0.28260
C         34.08225        42.21578        -0.00441
C         35.38705        44.19986        -0.70290
C         34.15821        43.58656        -0.43742
C         35.70162        45.50761        -1.08633
C         37.76294        27.39755        -0.19465
C         36.49527        26.96283         0.27999
C         37.59432        28.75385        -0.90540
C         36.54566        29.63155        -0.13218
C         37.66610        31.83030        -0.99671
C         36.42430        31.04987        -0.62630
C         37.70780        33.14140        -0.23916
C         36.49691        33.80469        -0.08854
C         37.76989        35.89863         0.30105
C         36.47801        35.15037         0.57950
C         37.80591        37.34328         0.62854
C         36.52719        38.06361         0.83330
C         37.85514        40.14970         0.71461
C         36.58942        39.44132         0.84600
C         37.89569        41.38382         0.12271
C         36.68199        41.96666        -0.62257
C         37.97202        44.12518        -0.82245
C         36.68471        43.48828        -0.31388
C         37.98269        45.38626        -1.69230
C         36.72210        46.20971        -1.31884
C         40.24446        24.77438         0.49987
C         39.22099        25.48254         0.45666
C         40.26980        27.41826        -0.45034
C         38.98108        26.78620        -0.05914
C         40.24456        28.75804        -0.81334
C         38.94671        29.48166        -1.01150
C         40.24890        31.74023        -0.76174
C         38.95056        30.99045        -0.99830
C         40.18280        32.87574         0.25432
C         38.97022        33.76491         0.07465
C         40.27702        35.78836         0.66693
C         39.02557        35.10772         0.37998
C         40.26080        37.12082         1.20306
C         39.03707        37.94046         1.23279
C         40.34120        40.26052         1.25269
C         39.06839        39.49010         1.25939
C         40.40397        41.57273         0.61671
C         39.22909        42.02030        -0.24163
C         40.39017        44.33353        -0.38527
C         39.14066        43.53024        -0.47030
C         40.48972        45.61771        -1.13957
C         39.27388        46.15066        -1.65274
C         40.55556        48.08436        -2.32647
C         39.49610        47.39347        -2.24765
C         42.79417        24.66567         0.01504
C         41.50544        25.27559         0.04836
C         42.75160        27.23742        -0.94326
C         41.49965        26.61297        -0.43547
C         42.79328        28.74414        -1.13424
C         41.49656        29.50428        -1.19313
C         42.91035        31.69542        -0.79980
C         41.53655        31.01624        -1.00736
C         42.81278        33.01277        -0.00875
C         41.50989        33.63460         0.42493
C         42.74979        35.80108         1.01225
C         41.48968        35.09737         0.66959
C         42.74003        37.25617         1.31033
C         41.45300        37.65142         1.73466
C         42.81053        40.36755         2.02667
C         41.43192        39.79455         1.93279
C         42.72665        41.82840         1.53195
C         41.54432        42.32019         0.75236
C         42.90144        44.42732         0.13444
C         41.59194        43.73625         0.27038
C         43.01879        45.71256        -0.67593
C         41.70677        46.34343        -1.16945
C         43.04547        48.29581        -1.59155
C         41.76692        47.64862        -1.77623
C         43.91399        25.16733        -0.17636
C         45.35155        27.22953        -0.53204
C         44.14982        26.46443        -0.80284
C         45.37621        28.72297        -0.61377
C         44.09866        29.47608        -0.85501
C         45.34347        31.59390        -0.18200
C         44.00568        30.83101        -0.13722
C         45.35626        33.08954        -0.14744
C         44.06985        33.84898        -0.02718
C         45.28060        36.00711         0.69977
C         44.07000        35.14334         0.74060
C         45.20212        37.36108         0.94587
C         43.94096        38.09106         1.26538
C         45.31980        40.24720         1.60307
C         43.96605        39.50004         1.42867
C         45.26435        41.76190         1.38995
C         44.02882        42.55149         1.36996
C         45.20489        44.71433         1.02361
C         44.00716        43.90093         0.72632
C         45.13248        46.21769         0.80419
C         43.98994        46.74527         0.01463
C         43.92619        47.97921        -0.77896
C         47.56410        27.30949         0.57332
C         46.51670        26.78784         0.09668
C         47.86055        28.73943         0.06803
C         46.47393        29.43882         0.19817
C         47.84000        31.64849        -0.43041
C         46.52345        30.92589        -0.12939
C         47.86189        33.07909         0.06653
C         46.59699        33.74403         0.39417
C         47.86034        35.95302         0.64493
C         46.56641        35.22937         0.71181
C         47.80934        37.41153         0.93148
C         46.48887        38.12149         1.02891
C         47.46589        40.24659         0.13762
C         46.44555        39.59978         0.80190
C         47.61228        41.75525         0.28534
C         46.51773        42.45719         1.07364
C         47.77601        44.69825         0.80647
C         46.50751        43.96666         1.13026
C         47.52990        46.09798         0.99807
C         46.49465        46.77503         0.92464
C         49.95012        29.27867         1.57687
C         48.88837        29.54861         0.79302
C         50.33598        31.69068         0.47056
C         49.08967        30.90749         0.15007
C         50.39254        33.15492         0.06696
C         49.07875        33.90926        -0.24810
C         50.28779        36.09834         0.25677
C         49.04055        35.31802         0.36536
C         50.18750        37.48984         0.01095
C         49.02435        38.27551         0.57713
C         49.55767        39.90286        -1.21231
C         48.62372        39.45558        -0.29905
C         49.51961        42.16211        -1.43234
C         48.35638        42.74850        -0.66824
C         50.01706        44.49523        -0.36040
C         48.72813        44.07413         0.05990
C         51.01591        29.90523         1.99147
C         52.40303        32.08352         1.63452
C         51.34867        31.13132         1.48925
C         52.56028        33.23390         1.19686
C         51.64250        33.96603         0.30144
C         52.55516        36.30400        -0.25077
C         51.54670        35.43164         0.17922
C         52.46741        37.50707        -0.61955
C         51.24825        38.23021        -0.60431
C         51.75208        40.43635        -1.84670
C         50.92350        39.45142        -1.26483
C         51.76778        41.67861        -1.98391
C         50.81884        42.66185        -1.56375
C         50.95482        43.99626        -1.01442
O         46.50162        34.21754         1.79973
O         45.80528        44.40838         2.32256
O         31.72296        33.97556        -1.00982
O         44.80246        33.86139        -1.27341
O         36.97832        41.72741        -1.95876
O         49.19355        40.96036        -2.08556
O         42.17070        29.07991        -2.41833
O         37.87310        36.88244        -0.77572
O         50.24033        30.86855        -0.75024
O         47.78789        42.00134         1.69735
O         40.90540        31.88641        -2.03906
O         41.30746        38.64568         2.70035
O         43.51491        35.04073         2.07632
O         43.99283        46.83648         1.44154
O         45.08638        29.34723        -1.89872
O         47.26278        37.75889         2.24258
O         42.36250        32.85576         1.36911
O         39.01897        30.24509        -2.26302
O         40.66440        44.59211         1.05843
O         51.41940        33.31807        -0.98250
O         43.16642        42.69997         2.62207
O         43.44658        26.58769        -2.04746
O         38.77191        38.69733         2.44558
O         32.28069        37.11588        -0.44282
O         34.03380        30.65679        -2.30190
H         34.20068        31.48735        -2.79547
O         37.10430        28.48581        -2.21719
H         37.63340        29.00979        -2.86014
O         36.56633        34.89133         2.02818
H         35.76305        34.39812         2.29819
O         47.95853        31.63250        -1.86696
H         48.38372        32.47945        -2.15009
O         43.64537        30.49723         1.22178
H         43.28727        31.30072         1.67434
O         39.55129        41.52522        -1.57462
H         38.67146        41.54556        -2.06805
O         37.13950        29.76088         1.19099
H         36.50302        30.21225         1.78406
O         37.46523        32.26415        -2.37832
H         37.88312        31.59177        -2.96424
O         35.45390        41.12964         2.10388
H         35.71509        40.56256         2.85895
O         46.14153        29.33022         1.59640
H         45.26098        29.75452         1.75290
O         43.42787        31.94489        -2.10578
H         42.68335        32.15289        -2.71200
O         45.71819        40.03284         2.98808
H         44.89428        40.09415         3.53600
O         39.93475        32.15386         1.49624
H         40.08963        32.76574         2.24709
O         49.53734        38.85580         1.80139
H         48.78828        38.86412         2.44794
O         47.32683        43.10581        -1.63419
H         47.75383        43.45163        -2.44640
O         49.09189        34.14535        -1.69896
H         50.03651        34.06168        -1.98665
O         37.77338        44.95922        -3.03133
H         37.88369        45.72577        -3.63169
O         34.88550        40.55469        -1.43836
H         35.58485        40.77462        -2.12594
O         43.11506        40.38555         3.44979
H         43.14086        41.33927         3.72364
O         48.22187        28.65533        -1.28384
H         49.18657        28.78608        -1.39718
O         36.71633        43.60025         1.12863
H         36.90048        44.53127         1.37544
O         30.74150        31.13373        -2.15296
H         30.56822        32.07134        -2.37614
O         43.73436        45.30243        -1.87406
H         43.78195        46.07330        -2.48110
O         32.52939        38.21406         3.13441
H         31.97600        38.68713         3.78997
