         424
 CSIRO Nanostructure Databank - Neutral Graphene Oxide Data Set
C          1.41391         2.03238        -1.62276
C          1.37586         3.45262        -1.54835
C          2.57818         1.33036        -1.40318
C          2.48615         4.19476        -1.16660
C          1.27883         6.40242        -1.31136
C          1.20833         7.71135        -0.98412
C          2.48568         5.62609        -1.07736
C          2.34563         8.37219        -0.23701
C          1.18396        10.59484        -0.11058
C          1.16120        12.04633        -0.17548
C          2.31960         9.88332        -0.33173
C          2.32159        12.76204        -0.09899
C          1.41764        14.95492        -0.87485
C          1.57022        16.30996        -1.15444
C          2.45464        14.20779        -0.27806
C          2.76398        16.96945        -0.81765
C          2.96985        18.39459        -1.09892
C          3.78846         2.01363        -1.05531
C          3.68926         3.45646        -0.61139
C          4.99989         1.36275        -1.01123
C          4.98346         4.21106        -0.77184
C          3.68900         6.33657        -0.83413
C          3.66810         7.74678        -0.64024
C          4.96409         5.62043        -0.82381
C          4.86353         8.49355        -0.64065
C          3.58510        10.64800        -0.66681
C          3.57104        11.96646         0.06779
C          4.87254         9.89087        -0.44923
C          4.84725        12.63577         0.44193
C          3.67644        14.85893         0.04560
C          3.79937        16.23269        -0.19334
C          4.77484        14.11763         0.82164
C          5.07626        16.98746         0.07864
C          3.94824        19.09805        -0.48969
C          4.74677        18.40244         0.60434
C          6.23884         2.07008        -0.80474
C          6.21102         3.52008        -0.75953
C          7.45044         1.40169        -0.74866
C          7.43814         4.24385        -0.73281
C          6.17769         6.33834        -0.84218
C          6.13800         7.81730        -1.08838
C          7.41634         5.66859        -0.77128
C          7.39245         8.54758        -0.68884
C          6.09354        10.62289        -0.33739
C          6.12177        11.99556         0.03518
C          7.34988         9.91401        -0.50612
C          7.34569        12.71967         0.17621
C          6.11326        14.81574         0.73367
C          6.07093        16.28877         1.03411
C          7.31428        14.15367         0.51222
C          7.36969        17.01620         0.84365
C          6.02868        19.15545         1.09661
C          7.33898        18.42728         0.84825
C          8.69226         2.10777        -0.64558
C          8.68459         3.54358        -0.66082
C          9.91093         1.42125        -0.55233
C          9.90903         4.26184        -0.58919
C          8.66036         6.41012        -0.72177
C          8.64460         7.82107        -0.68805
C          9.90543         5.70293        -0.62184
C          9.87415         8.54497        -0.54866
C          8.59549        10.72800        -0.71611
C          8.57628        12.08817        -0.07323
C          9.86513         9.96067        -0.47725
C          9.82297        12.75981         0.06435
C          8.55176        14.88475         0.55336
C          8.57644        16.30204         0.67657
C          9.84621        14.13458         0.67724
C          9.81161        17.04010         0.62643
C          8.53512        19.13979         0.76186
C          9.78766        18.46602         0.67646
C         11.14002         2.11783        -0.44261
C         11.13694         3.55622        -0.45704
C         12.36539         1.42615        -0.32152
C         12.36917         4.26608        -0.32405
C         11.12673         6.41173        -0.53602
C         11.11814         7.84747        -0.50750
C         12.37568         5.70131        -0.38357
C         12.33277         8.58222        -0.42900
C         11.06552        10.67671        -0.36508
C         11.02523        12.11044        -0.19542
C         12.31743         9.98032        -0.34388
C         12.28988        12.88018        -0.45430
C         11.07959        14.93641         0.33492
C         11.05556        16.35856         0.48297
C         12.27692        14.29208         0.06630
C         12.26805        17.09761         0.42012
C         11.01254        19.18749         0.64021
C         12.24050        18.52765         0.53227
C         13.58875         2.11583        -0.17178
C         13.58755         3.56187        -0.15605
C         14.80798         1.42381        -0.03778
C         14.80919         4.27220         0.04029
C         13.59165         6.39826        -0.26929
C         13.64185         7.86033        -0.62992
C         14.80466         5.70638        -0.00883
C         14.82700         8.59231        -0.05988
C         13.56076        10.72834        -0.18994
C         13.55309        12.12175        -0.13714
C         14.79559        10.01008        -0.00899
C         14.76842        12.86205        -0.00223
C         13.51291        15.00679         0.10287
C         13.51201        16.41569         0.29018
C         14.75142        14.29750         0.04701
C         14.74843        17.14179         0.33717
C         13.49478        19.23221         0.55866
C         14.70146        18.57618         0.49505
C         16.03643         2.10863         0.18373
C         16.02754         3.56496         0.24915
C         17.22320         1.40497         0.33685
C         17.22968         4.27451         0.49787
C         16.01611         6.42468         0.25229
C         15.99986         7.89252         0.26971
C         17.18504         5.70565         0.55036
C         17.17373         8.63106         0.58993
C         16.00291        10.73871         0.18128
C         15.99991        12.16799         0.11299
C         17.21651        10.03295         0.42869
C         17.23328        12.89822         0.11034
C         15.97498        15.02134         0.11220
C         15.97494        16.45067         0.22680
C         17.20542        14.30204         0.04743
C         17.23585        17.18461         0.26760
C         15.97569        19.37746         0.64419
C         17.24601        18.58831         0.43363
C         18.50954         2.05850         0.73756
C         18.48689         3.56740         0.61183
C         19.72603         1.43166         0.02957
C         19.70125         4.24124         0.68468
C         18.38520         6.41684         1.02239
C         18.39028         7.91887         1.01433
C         19.70537         5.67885         1.00981
C         19.69980         8.64495         0.92330
C         18.46960        10.76425         0.44736
C         18.48559        12.17567         0.21915
C         19.69393        10.08087         0.57704
C         19.72081        12.85792         0.20281
C         18.45071        15.05800        -0.15259
C         18.46963        16.50659         0.11006
C         19.76247        14.29859        -0.09009
C         19.70853        17.19273         0.18705
C         18.46896        19.27091         0.45076
C         19.69349        18.59755         0.35297
C         21.01300         2.15265         0.38427
C         20.97419         3.56475         0.62841
C         22.21414         1.48043         0.42219
C         22.18092         4.28638         0.80639
C         20.96979         6.42648         0.90207
C         20.93940         7.87944         0.51677
C         22.16967         5.73870         0.87265
C         22.20340         8.62911         0.83260
C         20.93178        10.76138         0.56850
C         20.94582        12.17699         0.43339
C         22.17184        10.03914         0.77166
C         22.18709        12.90073         0.49384
C         20.99894        15.05241         0.17056
C         20.97970        16.46751         0.18055
C         22.20227        14.32401         0.34848
C         22.20988        17.18068         0.24853
C         20.96261        19.40592         0.49151
C         22.24060        18.61842         0.30807
C         23.44696         2.17071         0.66306
C         23.43008         3.60160         0.80882
C         24.66641         1.48341         0.71639
C         24.65466         4.31771         0.95417
C         23.42750         6.46344         0.92035
C         23.42458         7.90044         0.96791
C         24.64616         5.76118         1.01755
C         24.64279         8.59769         1.17383
C         23.37252        10.78606         0.92957
C         23.39880        12.19074         0.75516
C         24.58642        10.05876         1.30749
C         24.66464        12.89264         0.66263
C         23.45036        15.03087         0.33272
C         23.45189        16.46530         0.22715
C         24.66174        14.31525         0.39203
C         24.67999        17.16233         0.14187
C         23.43740        19.29655         0.26165
C         24.69970        18.61307         0.12014
C         25.89195         2.17134         0.90125
C         25.88609         3.61103         1.01194
C         27.11447         1.47217         0.95033
C         27.11737         4.31243         1.16738
C         25.88269         6.47546         1.15760
C         25.88622         7.90743         1.24076
C         27.10906         5.75388         1.23517
C         27.13860         8.62060         1.28533
C         25.92238        10.83023         1.22024
C         25.87338        12.20240         0.73919
C         27.17103        10.05021         1.12575
C         27.12738        12.80619         0.16342
C         25.90748        15.01629         0.27584
C         25.91602        16.44352         0.13252
C         27.12710        14.30831         0.27819
C         27.14787        17.13320         0.00171
C         25.89316        19.29982        -0.01480
C         27.15831        18.58540        -0.40254
C         28.34374         2.15259         1.09898
C         28.34512         3.59019         1.21084
C         29.57351         1.45804         1.14231
C         29.58646         4.26547         1.38319
C         28.32500         6.46474         1.40033
C         28.35777         7.87997         1.36229
C         29.56089         5.71019         1.63927
C         29.63551         8.56199         1.25861
C         28.36669        10.76169         0.99453
C         28.40109        12.15329         0.65734
C         29.63234        10.04849         1.25308
C         29.58876        12.87627         0.58072
C         28.34554        15.00814         0.24883
C         28.36128        16.43521         0.11896
C         29.57912        14.28490         0.31860
C         29.61998        17.13705         0.18252
C         28.43491        19.28899        -0.03339
C         29.62734        18.60344         0.14151
C         30.80594         2.14000         1.22486
C         30.81606         3.58007         1.33489
C         32.03182         1.43361         1.18531
C         32.07904         4.28686         1.28960
C         30.90699         6.46517         1.57204
C         30.83675         7.89220         1.24854
C         32.12629         5.69615         1.28593
C         32.08916         8.54305         0.71686
C         30.92058        10.80314         1.17419
C         30.93983        12.32400         1.01142
C         32.15966        10.04176         0.90992
C         32.06178        12.86386         0.13174
C         30.80296        14.99049         0.23144
C         30.80472        16.42359         0.28958
C         32.00930        14.26751        -0.07593
C         32.10177        17.11516         0.63646
C         30.88386        19.28303         0.17952
C         32.11933        18.60108         0.31039
C         33.26678         2.10953         1.13064
C         33.29602         3.54122         1.13297
C         34.49780         1.39058         1.04250
C         34.53679         4.21665         0.93820
C         33.36487         6.40881         1.09995
C         33.36079         7.81448         1.05269
C         34.58304         5.65029         0.92010
C         34.62011         8.56383         0.99006
C         33.28052        10.70129         0.49826
C         33.19117        12.03297        -0.10058
C         34.65072        10.06423         0.64263
C         34.20341        12.33557        -1.06033
C         33.14664        15.07596        -0.47599
C         33.27772        16.42208        -0.01211
C         34.18841        14.56335        -1.25128
C         34.49075        17.08780        -0.11327
C         33.34751        19.24142         0.27056
C         34.62086        18.46249         0.50267
C         35.70055         2.04581         0.84152
C         35.72882         3.46602         0.72623
C         37.00481         1.28134         0.82484
C         36.94915         4.13434         0.31143
C         35.80163         6.29954         0.59787
C         35.87424         7.76733         0.67206
C         36.95912         5.57771         0.23803
C         37.01092         8.43775        -0.00262
C         35.47898        10.25425        -0.63439
C         35.42108        11.64799        -1.17500
C         36.88423         9.73921        -0.49364
C         36.58378        12.23475        -1.75327
C         35.46121        15.17169        -1.31252
C         35.62658        16.44291        -0.68858
C         36.60180        14.49889        -1.83347
C         36.89880        17.06245        -0.75069
C         35.88279        19.16089         0.08081
C         36.99670        18.47281        -0.40513
C         38.03095         1.89372        -0.13952
C         38.07027         3.40350        -0.06497
C         39.40155         1.28939         0.06387
C         39.22334         4.06257        -0.76983
C         38.16973         6.26297        -0.16544
C         38.18748         7.69729        -0.26115
C         39.30648         5.55060        -0.56472
C         39.32280         8.38254        -0.78303
C         38.02421        10.46118        -0.95686
C         37.89396        11.82400        -1.47707
C         39.25511         9.79008        -0.99564
C         39.08312        12.65050        -1.72584
C         37.90418        14.94290        -1.61526
C         38.02919        16.32526        -1.19830
C         39.08471        14.10058        -1.82137
C         39.27692        16.98962        -1.35153
C         38.24732        19.11712        -0.62582
C         39.36470        18.40408        -1.09864
C         40.54630         1.99246        -0.15631
C         40.54125         3.37290        -0.54007
C         41.71233         4.08487        -0.80899
C         40.50621         6.22517        -0.97233
C         40.49307         7.64404        -1.14981
C         41.69116         5.44780        -1.13062
C         41.53373         8.35567        -1.86171
C         40.52711        10.54751        -1.23548
C         40.34000        11.97845        -1.71062
C         41.50806         9.70453        -2.01751
C         41.52501        12.68836        -1.93427
C         40.32646        14.79797        -1.94003
C         40.40392        16.26116        -1.83317
C         41.52224        14.06905        -2.07048
C         41.58051        16.97174        -2.11104
C         40.59990        19.06569        -1.36385
C         41.66869        18.35829        -1.87917
O         30.33160        10.49458         2.49881
O         19.07566         8.42931         2.21522
O         18.93732         5.89382         2.26867
O         33.96275        13.37777        -1.96463
O          4.08091        11.82599         1.43254
O         35.59126         8.25706         2.04840
O         25.24269        10.60361         2.49777
O         36.39124        13.34223        -2.59411
O         19.15457        14.66370        -1.38739
O         30.27931         6.11423         2.84805
O          3.83249        18.26489         1.70803
H          4.13344        18.89386         2.40585
O          5.77905        17.10141        -1.18380
H          5.15593        17.47457        -1.84349
O          5.67587        16.50413         2.41594
H          4.98999        15.82353         2.63596
O          9.97143        13.87944         2.13489
H          9.90582        14.74590         2.59099
O         37.54364         1.27652         2.15922
H         37.59523         2.20346         2.47159
O         13.86514         7.87761        -2.09673
H         13.14212         7.35437        -2.50443
O          3.44880         3.39814         0.84533
H          2.65012         2.84458         0.97970
O          4.35986        14.19342         2.22073
H          3.97809        13.30312         2.43761
O         35.29726        10.78207         1.70740
H         35.69221        10.10637         2.31018
O         34.79607         9.39470        -1.62451
H         35.20324         9.56181        -2.50168
O         27.09012        12.50514        -1.28881
H         26.34628        13.01759        -1.67208
O          6.11191         7.95440        -2.56914
H          6.10469         8.91671        -2.76479
O         15.95278        20.52436        -0.22128
H         15.93638        20.20661        -1.14714
O         31.96238         8.40975        -0.76095
H         32.81202         8.71905        -1.15901
O          8.58620        11.00804        -2.18204
H          8.68440        10.14380        -2.63722
O         20.83328         7.85722        -0.96428
H         21.67299         7.49100        -1.31592
O          2.14519         8.06061         1.18153
H          2.20910         7.08642         1.27710
O         20.93222        20.53106        -0.40194
H         20.88920        20.19067        -1.31883
O         38.93380         3.87481        -2.23743
H         38.19416         4.48212        -2.45743
O         18.70871         1.74767         2.16133
H         18.02716         2.23542         2.67072
O         12.31457        13.05004        -1.92591
H         12.32378        12.15263        -2.32276
O         32.24480        16.99710         2.08004
H         33.09411        17.45012         2.31827
O          5.93553        19.33922         2.52139
H          6.03474        18.43929         2.91687
O         19.80037         0.05175         0.37533
H         19.67810         0.00508         1.34882
O          3.54813        10.95266        -2.09859
H          3.46033        10.10471        -2.58292
O         27.14142        18.58172        -1.89682
H         26.32117        18.11767        -2.17087
O         41.15212        10.70790         0.09769
H         41.24070         9.81094         0.48551
O         34.73154        18.26596         1.97892
H         35.53013        17.71807         2.13852
O         31.19534        12.89051         2.32614
H         30.76599        12.28786         2.97802
O         37.60428         1.54949        -1.49105
H         38.13647         2.11929        -2.10053
H          0.50251         1.49718        -1.92418
H          0.44616         3.95547        -1.84908
H          2.60908         0.24260        -1.56421
H          0.40750         5.91123        -1.76785
H          0.27986         8.27595        -1.15523
H          0.23660        10.07568         0.09787
H          0.18668        12.54865        -0.26133
H          0.47874        14.45196        -1.14562
H          0.75297        16.86771        -1.63374
H          2.28561        18.88211        -1.81097
H          5.04443         0.28073        -1.21231
H          4.07339        20.17621        -0.67778
H          7.46953         0.30218        -0.78794
H          6.07124        20.17670         0.63772
H          9.91513         0.32113        -0.54803
H          8.52016        20.23990         0.77881
H         12.36513         0.32602        -0.32505
H         10.98862        20.28524         0.70910
H         14.81100         0.32427        -0.07265
H         13.48345        20.32748         0.66230
H         17.20979         0.30531         0.29170
H         16.00166        19.78866         1.69304
H         19.58052         1.49697        -1.08338
H         18.46870        20.36442         0.56555
H         22.22995         0.39248         0.26052
H         20.97597        19.84254         1.53001
H         24.67804         0.38905         0.60461
H         23.43376        20.39604         0.29853
H         27.11243         0.37560         0.86244
H         25.88553        20.40057        -0.03376
H         29.57200         0.36001         1.07226
H         28.44714        20.38895        -0.08482
H         32.01661         0.33430         1.14349
H         30.89209        20.37680         0.04910
H         34.47716         0.29242         1.10677
H         33.40408        20.32363         0.07553
H         36.82553         0.21571         0.54176
H         35.98841        20.22652         0.33719
H         39.45579         0.22341         0.32941
H         38.34130        20.19430        -0.42287
H         41.52310         1.49663        -0.03791
H         42.67946         3.56143        -0.76300
H         42.63579         5.94856        -1.38352
H         42.32429         7.77116        -2.35546
H         42.29698        10.19621        -2.60564
H         42.48586        12.15598        -1.92747
H         42.48269        14.58729        -2.18467
H         42.46165        16.46095        -2.52120
H         40.68208        20.14582        -1.17668
H         42.61078        18.87738        -2.10546
