         276
 CSIRO Nanostructure Databank - Neutral Graphene Oxide Data Set
C        -10.54286         1.01853         1.55289
C         -9.48085         1.76629         0.78644
C         -8.60948         0.88999        -0.08564
C         -7.37479         1.55337        -0.61895
C         -6.27607         0.84426        -0.98297
C         -5.13817         1.58625        -1.68597
C         -3.85854         0.74161        -1.81248
C         -2.53333         1.47053        -1.70825
C         -1.30563         0.70300        -1.29545
C         -0.02997         1.43993        -1.08680
C          1.27118         0.71225        -1.26146
C          2.49088         1.35267        -0.66689
C          3.65822         0.48389        -0.29858
C          4.79440         1.09160         0.46841
C          6.16185         0.57909         0.15678
C          7.31304         1.03426         1.05858
C          8.68341         0.69753         0.39069
C          9.81286         1.17828         1.27393
C         11.01102         0.36924         1.40695
C         -9.95102         2.97718        -0.05024
C         -8.69498         3.71561        -0.48126
C         -7.63773         2.92665        -1.23760
C         -6.29073         3.67644        -1.63779
C         -4.97317         3.02596        -1.19484
C         -3.78232         3.69105        -1.32605
C         -2.49112         2.95752        -1.50789
C         -1.22954         3.60886        -1.02847
C         -0.04898         2.92259        -0.96918
C          1.14254         3.55253        -0.34104
C          2.40126         2.76486        -0.13092
C          3.38608         3.22732         0.91189
C          4.66832         2.46794         1.11630
C          5.92383         3.20207         1.67864
C          7.25033         2.52849         1.34212
C          8.42433         3.18541         1.57636
C          9.68568         2.45943         1.71657
C         -8.63598         5.05222        -0.33174
C         -7.44454         5.82423        -0.60955
C         -6.38662         5.24667        -1.54559
C         -5.00281         5.95034        -1.40358
C         -3.70202         5.18776        -1.42142
C         -2.32051         5.87365        -1.25599
C         -1.29915         4.99561        -0.55759
C         -0.35668         5.45884         0.31947
C          0.90176         4.68591         0.64837
C          2.19676         5.49983         0.70514
C          3.33498         4.70123         1.25571
C          4.60368         5.40054         1.60582
C          5.94432         4.70158         1.23505
C          7.20010         5.48030         1.78233
C          8.52938         4.69176         1.62794
C         -7.41595         7.12337        -0.18786
C         -6.11445         7.81302         0.08629
C         -4.97443         7.35063        -0.82679
C         -3.67902         8.02339        -0.51022
C         -2.31249         7.41417        -0.85144
C         -1.42701         7.74591         0.34666
C         -0.57932         6.73521         1.02072
C          1.39334         7.68586        -0.34936
C          2.42084         6.78947         0.29678
C          3.64850         7.49537         0.66143
C          4.53390         6.87946         1.49101
C          6.51741         7.84999         1.26317
C          7.36883         6.82317         1.05271
C         -6.12179         9.32690         0.11838
C         -4.96949        10.00417         0.24983
C         -3.69105         9.22995         0.48985
C         -2.37938         9.97600         0.41496
C         -1.21429         9.22587         0.46348
C          0.09652         9.78504         0.45257
C          1.32774         9.09412         0.21848
C          2.55961         9.68994         0.42587
C          3.80685         8.90182         0.08103
C          5.11926         9.64394         0.29490
C          6.33700         9.16069         0.62621
C        -10.61996        -0.31615         1.65164
C         -9.88534        -1.26856         0.72997
C         -8.68718        -0.59266         0.04735
C         -7.34256        -1.25383         0.04176
C         -6.30100        -0.65240        -0.86167
C         -5.10179        -1.48424        -1.18628
C         -3.85800        -0.76060        -1.64449
C         -2.57221        -1.52011        -1.41867
C         -1.28259        -0.79870        -1.42612
C         -0.01516        -1.53074        -1.73622
C          1.25977        -0.77149        -1.56171
C          2.44930        -1.55987        -1.03103
C          3.75654        -0.76405        -1.10218
C          5.08468        -1.48778        -1.20288
C          6.26370        -0.70466        -0.60471
C          7.56643        -1.46401        -0.52404
C          8.77484        -0.78643         0.02303
C          9.77266        -1.69809         0.75216
C         11.03613        -0.94903         1.10429
C         -9.57553        -2.63398         1.30536
C         -8.43970        -3.32267         1.07803
C         -7.21597        -2.64664         0.56064
C         -6.05459        -3.48401         0.16740
C         -4.89923        -2.81574        -0.49459
C         -3.64730        -3.60536        -0.73589
C         -2.59906        -3.03486        -1.70430
C         -1.22167        -3.68169        -1.46364
C         -0.04146        -3.02739        -1.62395
C          1.25370        -3.73739        -2.06896
C          2.54096        -2.95113        -1.67353
C          3.85150        -3.65321        -1.48044
C          4.91142        -2.93374        -0.63313
C          6.23570        -3.69059        -0.52789
C          7.52824        -2.95916        -0.40467
C          8.84444        -3.68194        -0.68736
C          9.98635        -2.97881         0.00161
C         -8.35602        -4.81719         1.32753
C         -6.91654        -5.23325         1.68666
C         -5.93343        -4.75308         0.63510
C         -4.86486        -5.65199         0.11248
C         -3.61695        -5.06905        -0.45754
C         -2.49670        -5.79532        -0.70792
C         -1.37169        -5.19870        -1.57604
C         -0.02369        -5.90950        -1.37182
C          1.29186        -5.21994        -1.65145
C          2.58201        -5.81549        -1.11732
C          3.87851        -5.17394        -1.61999
C          5.12536        -5.84209        -1.06946
C          6.25714        -5.15737        -0.75388
C          7.52893        -5.83645        -0.45228
C          8.71168        -5.15608        -0.36882
C         -6.80096        -6.69227         2.02838
C         -5.83217        -7.52299         1.57230
C         -4.88383        -7.09609         0.49869
C         -3.64711        -7.92405         0.24867
C         -2.43218        -7.30723        -0.48310
C         -1.10695        -7.75158         0.12033
C          0.10704        -6.97332        -0.28233
C          1.31055        -7.82429        -0.77102
C          2.60489        -7.08013        -0.60936
C          3.87546        -7.71003        -0.03870
C          5.06585        -7.35050        -0.99732
C          6.33565        -7.98672        -0.48954
C          7.48076        -7.27892        -0.28221
C         -5.63327        -8.81438         2.22112
C         -4.50587        -9.53714         2.06773
C         -3.45158        -9.14074         1.10521
C         -2.09393        -9.63987         1.31853
C         -0.96692        -8.95358         0.86461
C          0.33864        -9.64932         0.99185
C          1.56396        -9.15557         1.34211
C          2.79221        -9.82806         0.88904
C          3.82604        -9.20870         0.24703
C          5.02525        -9.98914        -0.02195
C          6.23145        -9.41687        -0.28221
O         -4.28987         5.75232        -2.64759
O          3.73880         4.88964         2.66918
O         -6.84984        -1.47182         1.40724
O          1.21942        -8.81659        -1.45971
O          6.85550        -3.40982         0.80372
O          3.52362        -3.00100        -2.73666
O         -6.19971        -1.39310        -2.12733
O          3.89762         0.15156         1.13918
O          0.67154        -6.14502        -2.61205
O         -5.61090         1.90718        -3.06933
O         -7.00146         5.72249        -2.70663
O         -4.43654         8.36339        -1.71724
O          8.64304        -1.01485        -1.41463
O         -2.32886         2.34966        -2.84433
O          2.30512         3.76502        -1.19809
O          6.42134         0.58539        -1.28444
O         -2.87616        -3.31212        -3.02522
O         -1.73492         5.99654        -2.63824
O          0.75768        -1.05805        -2.89744
O         -1.89321        -1.30040        -0.17094
O         -3.91475        -0.16027        -2.95901
O          2.25380         1.36499        -2.10958
O         -0.82813         0.97613         0.07213
O         -9.16035         0.06740        -1.16770
O          0.73555         7.33185        -1.30927
O         -3.78625        -2.79108         0.47426
O         -3.94587        -9.23735        -0.31674
O         -1.93990         6.99262         1.53585
O         -8.34366         2.59115        -2.46284
O          5.48148         7.61207         2.19436
O          3.57180         2.40743         2.08850
O         -5.49495        -6.67819        -0.75745
O          4.10925        -7.08144         1.25819
H          4.29959        -6.12786         1.11701
O          0.37492         7.11824         1.96296
H          0.02129         7.87764         2.47031
O         -1.81750         4.75702        -3.34279
H         -2.70903         4.79116        -3.77387
O        -10.72963         2.55899        -1.16361
H        -10.10674         2.33415        -1.89690
O          3.87253        -5.48525        -3.03605
H          3.41849        -4.73488        -3.49816
O          6.97825         5.70182         3.18272
H          6.59255         4.86813         3.55055
O         -6.57613        -4.54256         2.92389
H         -6.50223        -3.58142         2.73508
O          0.74001         4.08032         1.95081
H          0.70524         4.79839         2.61843
O         -1.81115        -5.41608        -2.92173
H         -1.06294        -5.20956        -3.52659
O         -5.83281         7.27908         1.41780
H         -5.23562         7.91601         1.89386
O          3.82303         8.71749        -1.37213
H          2.93398         8.42826        -1.67362
O         -8.73573        -5.51077         0.13997
H         -9.57431        -5.13270        -0.19492
O         -3.78573         8.82076         1.89235
H         -3.05179         8.19459         2.10411
O          1.72213        -8.05700         2.13790
H          2.66714        -7.75104         2.10690
O          5.99137         4.67333        -0.20122
H          6.17740         5.57657        -0.53712
O          5.52078        -1.66148        -2.57419
H          5.58346        -0.76961        -2.97863
O          5.82229         3.16588         3.12207
H          4.85362         3.23076         3.33061
O          9.42055         5.10793         2.66035
H          8.85651         5.51603         3.36084
O          2.06825        -1.72266         0.35833
H          2.87452        -1.96186         0.88092
O         -8.55533         2.29104         1.78605
H         -9.07642         2.74100         2.48344
O          4.78742        -7.93364        -2.27916
H          4.32613        -7.26508        -2.84019
O          0.47964        -6.16623         0.87139
H          0.66227        -6.76852         1.63654
O         -6.07710         3.34429        -3.06293
H         -7.73662         2.77464        -3.22414
O          4.39906        -2.87569         0.71440
H          5.17856        -2.79861         1.31912
O          7.19373         0.30428         2.29618
H          6.71548         0.86261         2.94599
O         -1.80612         8.19303        -1.93471
H         -2.49379         8.20154        -2.63689
O          1.19583        -3.73247        -3.50712
H          1.14768        -2.78965        -3.79534
O         -2.34922        -7.90572        -1.80093
H         -2.86235        -8.74972        -1.76365
O          9.13335        -3.58689        -2.11062
H          9.18848        -2.62430        -2.32549
O        -10.86143        -1.59034        -0.30288
H        -10.77874        -0.88706        -0.99158
O          8.82561         1.48217        -0.80242
H          8.32121         1.03164        -1.52092
O          9.09481        -2.03470         2.00821
H          9.68496        -2.62313         2.52354
H         11.96823        -1.52330         1.21860
H         11.92642         0.86541         1.76584
H         10.49937         2.97225         2.25068
H          8.99358         4.97447         0.63812
H          8.19041         6.92559         0.32898
H          7.21803         9.81049         0.49889
H          5.09137        10.66189        -0.12864
H          2.62976        10.72184         0.80453
H          0.17152        10.87036         0.63301
H         -2.35088        11.07634         0.41786
H         -4.94909        11.10430         0.25990
H         -7.07605         9.85920        -0.01072
H         -8.28266         7.49367         0.38493
H         -9.47382         5.58345         0.14888
H        -10.58144         3.65353         0.58855
H        -11.20453         1.64266         2.17740
H        -11.39583        -0.76259         2.29349
H        -10.44450        -3.17015         1.72194
H         -9.04782        -5.09572         2.17530
H         -7.46333        -7.04726         2.83405
H         -6.40254        -9.14180         2.93623
H         -4.35403       -10.46690         2.63504
H         -1.96353       -10.56038         1.90604
H          0.36225       -10.60657         0.44644
H          2.83281       -10.92502         0.99274
H          4.96165       -11.07466         0.14755
H          7.14327       -10.03194        -0.30677
H          8.39812        -7.79493         0.04008
H          9.63776        -5.71889        -0.17722
H         11.00740        -3.27110        -0.29286
