         661
 CSIRO Nanostructure Databank - Neutral Graphene Oxide Data Set
C          5.81443        31.83504        -0.07908
C          5.83097        33.19665        -0.14348
C          8.25847        27.51421         0.41459
C          8.22588        28.95923         0.84129
C          6.99982        29.73771         0.43607
C          8.32304        31.77447        -0.17164
C          7.02646        31.05452         0.10737
C          8.28680        33.24548         0.17217
C          7.04639        33.96779         0.03219
C          8.21557        36.12587         0.27499
C          7.03441        35.36554         0.03749
C          8.26763        37.52072         0.19753
C         10.75321        23.18964         0.29428
C         10.69794        24.64962         0.35450
C          9.49564        25.36512         0.28661
C         10.71468        27.51497         0.47830
C          9.45822        26.79886         0.39634
C         10.75031        28.94229         0.60173
C          9.51894        29.69376         0.57755
C         10.75135        31.82036         0.49836
C          9.53969        31.07229         0.38596
C         10.73819        33.22463         0.50640
C          9.46440        33.91358         0.45266
C         10.72694        36.09663         0.82841
C          9.41887        35.36685         0.68959
C         10.75699        37.50872         0.37107
C          9.48573        38.26513         0.27834
C         10.76956        40.39225         0.25233
C          9.55189        39.64912         0.12749
C         10.78894        41.78890         0.08911
C         13.31992        18.91894         0.12063
C         13.26761        20.29027         0.15707
C         11.90751        20.95030         0.35328
C         13.20586        23.14252         0.60077
C         11.91024        22.46841         0.36822
C         13.19102        24.66894         0.60253
C         11.91983        25.37858         0.43193
C         13.18476        27.50046         0.27651
C         11.93411        26.79265         0.41085
C         13.19913        28.94632         0.33216
C         11.97983        29.62817         0.59542
C         13.25454        31.79212         0.52279
C         11.99902        31.09276         0.94594
C         13.27839        33.27859         0.32856
C         11.97275        33.97652         0.60911
C         13.24605        36.09497         0.92366
C         12.00044        35.34935         0.73464
C         13.24163        37.49088         1.03532
C         12.07995        38.23543         0.51591
C         13.14737        40.40178         0.91882
C         12.01260        39.70677         0.57259
C         13.05748        41.90408         1.13775
C         11.94589        42.56517         0.36013
C         13.22400        44.69418         0.28438
C         12.02187        43.93355         0.11568
C         13.27763        46.06517         0.18155
C         15.86440        14.59839        -0.26798
C         15.71583        16.04316        -0.54568
C         14.56234        16.79912        -0.05935
C         15.77767        18.93197        -0.29956
C         14.54324        18.18217        -0.10654
C         15.73647        20.37894        -0.12952
C         14.49681        21.05552         0.07412
C         15.67374        23.22406         0.26472
C         14.47587        22.46329         0.27366
C         15.63994        24.65599         0.26623
C         14.43515        25.37814         0.27764
C         15.59231        27.50653        -0.35920
C         14.37969        26.78944         0.09558
C         15.54886        29.01531        -0.56199
C         14.39725        29.66864         0.14673
C         15.68651        31.82553         0.12463
C         14.42891        31.09747         0.26271
C         15.73052        33.20446         0.54629
C         14.46877        33.86349         1.09710
C         15.69601        36.08136         1.17729
C         14.48144        35.37879         1.04778
C         15.74994        37.48665         1.40762
C         14.40601        38.21549         1.69534
C         15.32203        40.56909         1.85886
C         14.33573        39.72911         1.39998
C         15.50970        41.94145         1.42176
C         14.38847        42.60053         0.99522
C         15.68893        44.74263         0.97421
C         14.53336        43.95632         0.37685
C         15.72605        46.13128         0.77379
C         14.52475        46.78412         0.28694
C         15.78603        48.89688        -0.03361
C         14.59498        48.10594        -0.10947
C         15.70059        50.12210        -0.72818
C         18.22730        10.24092        -0.58032
C         18.23631        11.76021        -0.43335
C         17.06839        12.46361        -0.36510
C         18.28245        14.56182        -1.02180
C         17.02443        13.91483        -0.46523
C         18.30115        16.09966        -0.96774
C         16.98765        16.83956        -0.86020
C         18.26918        19.03395        -0.68260
C         16.97762        18.26771        -0.52006
C         18.21222        20.42357        -0.11001
C         16.95191        21.11261        -0.07759
C         18.16161        23.21991         0.16501
C         16.93640        22.52902         0.14076
C         18.20552        24.67540         0.36461
C         16.90267        25.42317         0.33910
C         18.15292        27.61219        -0.25803
C         16.90707        26.81506        -0.20429
C         18.09952        28.98495        -0.46298
C         16.87510        29.71349        -0.34734
C         18.16891        31.82761        -0.14998
C         16.89684        31.11879        -0.16544
C         18.12266        33.33460        -0.12898
C         16.91790        33.89617         0.59166
C         18.26246        36.02937         0.96704
C         16.94750        35.27952         1.11299
C         18.19294        37.47467         0.92512
C         17.03910        38.12739         1.38582
C         18.18673        40.34907         1.21688
C         17.22683        39.52925         1.72473
C         18.09122        41.84431         1.01259
C         16.82253        42.58953         1.41103
C         18.12602        44.69903         1.57950
C         16.85377        43.98048         1.32381
C         18.15391        46.21855         1.41798
C         16.92321        46.93305         0.95029
C         18.26470        49.02234         0.76421
C         16.95811        48.29171         0.60940
C         18.45522        50.39599         0.25191
C         16.64843        51.18244        -0.68453
C         18.29012        52.82789        -1.53126
C         17.02079        52.11224        -1.62555
C         18.31309        54.12812        -2.01641
C         20.81257         5.98177        -0.00768
C         20.76791         7.40819        -0.00490
C         19.53660         8.09029        -0.02860
C         20.69909        10.28134        -0.30840
C         19.42644         9.58001         0.13799
C         20.68415        11.75836        -0.21024
C         19.51111        12.47471        -0.35076
C         20.71526        14.63648        -0.22341
C         19.53818        13.92552        -0.42809
C         20.79444        16.07739        -0.29277
C         19.57313        16.83243        -0.65868
C         20.67815        18.90954         0.04517
C         19.52568        18.26963        -0.30644
C         20.64464        20.32530         0.55490
C         19.39536        21.08048         0.16668
C         20.62380        23.20052         0.01390
C         19.40787        22.51710         0.15509
C         20.54634        24.54099        -0.67609
C         19.46939        25.40126         0.00111
C         20.53250        27.54199        -1.09731
C         19.43695        26.87141        -0.27642
C         20.60338        28.97448        -0.61741
C         19.34249        29.75208        -0.86684
C         20.64201        31.86392        -0.33645
C         19.37134        31.17808        -0.37212
C         20.65429        33.29366        -0.06316
C         19.44552        33.98517         0.18944
C         20.69170        36.08748         0.43703
C         19.47845        35.35415         0.47110
C         20.69105        37.52861         0.52495
C         19.39071        38.21895         0.50135
C         20.66341        40.42031         0.84290
C         19.38064        39.73111         0.59278
C         20.62421        41.82414         1.25858
C         19.39471        42.53583         1.34917
C         20.62434        44.63473         1.49892
C         19.39419        43.93362         1.50530
C         20.63045        46.04970         1.20603
C         19.48181        46.79236         1.10472
C         20.75951        48.83550         0.22276
C         19.55237        48.24804         0.85465
C         20.76577        50.05589        -0.40299
C         19.56108        50.87592        -0.41864
C         20.75778        52.70750        -1.55053
C         19.54618        52.16678        -1.12214
C         20.76399        54.04820        -2.17295
C         19.52732        54.85725        -2.17726
C         20.81174        56.94039        -2.52408
C         19.57502        56.20299        -2.49773
C         20.82410        58.34155        -2.63443
C         23.29895         3.18359        -0.04150
C         22.07988         3.85920        -0.03516
C         23.27661         6.00406         0.03252
C         22.03733         5.28174        -0.00290
C         23.26652         7.43392         0.05519
C         22.02161         8.11644         0.01738
C         23.26136        10.33684        -0.08004
C         22.01264         9.56273        -0.22729
C         23.22360        11.69466        -0.10420
C         21.95029        12.42796         0.07209
C         23.25068        14.63819         0.09202
C         21.95761        13.93004         0.15791
C         23.23875        16.07018         0.17679
C         21.96249        16.76595         0.02333
C         23.12932        18.92270         0.34430
C         21.95656        18.21161         0.14335
C         23.13402        20.37770         0.35620
C         21.93875        21.07180         0.33288
C         23.15465        23.30264         0.22941
C         21.86764        22.56242         0.58467
C         23.13663        24.71009        -0.25858
C         21.86139        25.30895        -0.76748
C         23.08332        27.49347        -0.51768
C         21.85527        26.78495        -1.00604
C         23.06637        28.95837        -0.29392
C         21.88307        29.71466        -0.87208
C         23.12047        31.82414        -0.35293
C         21.86014        31.16776        -0.45868
C         23.15290        33.32793        -0.45018
C         21.87360        34.00640        -0.03526
C         23.16590        36.11953         0.31098
C         21.90433        35.39396         0.20528
C         23.15831        37.56609         0.56531
C         21.87178        38.26656         0.58494
C         23.08676        40.31448         1.38116
C         21.84624        39.70483         0.75683
C         23.17488        41.86129         1.21280
C         21.83908        42.51958         1.49108
C         23.12885        44.64123         1.57837
C         21.85092        43.92225         1.55947
C         23.16582        45.94044         1.14996
C         21.91509        46.59586         0.70518
C         23.27452        48.64232        -0.03387
C         21.96339        47.97694         0.15757
C         23.28883        49.93438        -0.65658
C         21.98839        50.50343        -1.19310
C         23.23927        52.62626        -1.61665
C         22.03601        52.00795        -1.40860
C         23.38734        54.04456        -2.13564
C         22.07480        54.78219        -2.33576
C         23.19691        56.98747        -1.95154
C         22.04603        56.25593        -2.27937
C         23.20976        58.39669        -2.05593
C         22.01622        59.08128        -2.45042
C         23.22633        61.20009        -2.32741
C         22.05307        60.49986        -2.57678
C         24.50683         3.88173        -0.01446
C         25.73223         6.03888         0.07700
C         24.51672         5.30229         0.02379
C         25.72685         7.43570         0.13141
C         24.50852         8.13981         0.09963
C         25.76010        10.22423        -0.56735
C         24.56620         9.63862         0.24570
C         25.75773        11.76406        -0.52130
C         24.45933        12.48708        -0.30115
C         25.70334        14.60098         0.08058
C         24.46930        13.92915         0.03413
C         25.73919        16.04340         0.51101
C         24.42314        16.76481         0.35440
C         25.69774        18.95504         0.28428
C         24.42061        18.22860         0.69740
C         25.64634        20.41053         0.20176
C         24.41835        21.06398         0.24636
C         25.58193        23.19736        -0.61626
C         24.34812        22.48489        -0.14635
C         25.57662        24.67497        -0.76694
C         24.38853        25.37842        -0.73303
C         25.54403        27.56132        -0.94903
C         24.37740        26.80895        -0.75163
C         25.59493        28.96643        -0.69528
C         24.39893        29.65259        -0.05228
C         25.60251        31.78394        -0.26625
C         24.34343        31.12923        -0.33290
C         25.63731        33.17757         0.19625
C         24.34019        33.93824         0.26165
C         25.62519        36.09291         0.62010
C         24.34525        35.41428         0.34383
C         25.64797        37.58050         0.34529
C         24.34838        38.22697         0.75371
C         25.61066        40.20370         1.77371
C         24.42479        39.72637         0.87474
C         25.66372        41.72412         1.80384
C         24.33161        42.41066         2.10821
C         25.69926        44.62069         1.82469
C         24.37595        43.92914         1.98556
C         25.71637        46.05669         1.39732
C         24.41395        46.72889         1.07028
C         25.74784        48.48492        -0.26102
C         24.43912        47.97924         0.28286
C         25.74099        49.96649        -0.47958
C         24.51289        50.58917        -0.82876
C         25.75182        52.73515        -1.16490
C         24.55925        51.89094        -1.56901
C         25.70967        54.12947        -1.15320
C         24.41189        54.81349        -1.33221
C         25.64043        57.05412        -1.22007
C         24.37130        56.30712        -1.36151
C         25.60923        58.44854        -1.40983
C         24.41891        59.13395        -1.78488
C         24.39860        60.53652        -1.93731
C         27.02314         8.17443         0.38933
C         28.18652        10.35610         0.05764
C         27.05181         9.62381        -0.05622
C         28.22611        11.80994        -0.08702
C         26.99952        12.51242        -0.23228
C         28.19185        14.65983        -0.00827
C         26.95105        13.91805        -0.07489
C         28.19712        16.07778        -0.02493
C         26.86760        16.78542        -0.21925
C         28.17328        18.94832         0.21016
C         26.87136        18.25672         0.13502
C         28.16749        20.45941         0.07659
C         26.86976        21.15800        -0.10351
C         28.09660        23.19725        -0.98650
C         26.85926        22.47950        -0.48072
C         28.10177        24.71624        -0.67074
C         26.81450        25.34982        -1.15155
C         28.06065        27.60357        -1.23059
C         26.79225        26.87746        -1.31334
C         28.05749        28.96789        -0.98092
C         26.80644        29.66629        -0.73731
C         28.07325        31.77855        -0.34331
C         26.82577        31.08812        -0.44554
C         28.10330        33.20146        -0.02491
C         26.92259        33.88182         0.21130
C         28.16692        36.08934         0.26292
C         26.90852        35.32846         0.49965
C         28.17409        37.55088         0.61357
C         26.89594        38.24843         0.90105
C         28.15333        40.24533         1.60689
C         26.90931        39.53996         1.36095
C         28.14408        41.63330         1.69153
C         26.87825        42.38599         1.70771
C         28.16161        44.51062         1.52546
C         26.94953        43.83671         1.66979
C         28.20028        45.94059         1.19874
C         26.99443        46.63727         0.92402
C         28.22038        48.62703         0.20777
C         26.99977        47.92999         0.37771
C         28.20886        50.01370        -0.21230
C         26.97890        50.66530        -0.53381
C         28.16012        52.84108        -0.63769
C         26.96296        52.07723        -0.80708
C         28.10807        54.24836        -0.70522
C         26.88296        54.91694        -0.90217
C         26.81959        56.34663        -0.94548
C         29.42161        12.52535         0.03764
C         30.64990        14.68378         0.03676
C         29.43065        13.94612         0.01370
C         30.65671        16.06795         0.01803
C         29.41783        16.78402        -0.02062
C         30.63049        18.95022        -0.19528
C         29.43972        18.23249        -0.03577
C         30.59805        20.38582        -0.40681
C         29.41631        21.08508        -0.38324
C         30.63403        23.32726        -0.75006
C         29.38451        22.55951        -0.52682
C         30.56751        24.76876        -1.12565
C         29.35136        25.41487        -1.17362
C         30.57770        27.60166        -1.29015
C         29.31154        26.86097        -1.63764
C         30.55810        28.97363        -1.05610
C         29.30508        29.70002        -0.89033
C         30.59046        31.72002        -0.19128
C         29.28636        31.06395        -0.55831
C         30.60831        33.22395        -0.21033
C         29.37979        33.93363         0.04293
C         30.69284        36.09507         0.11903
C         29.40882        35.30329         0.24790
C         30.70285        37.32135         1.05035
C         29.41670        38.04683         1.29556
C         30.70521        40.13614         1.98912
C         29.35378        39.40095         2.01546
C         30.67234        41.65663         1.94274
C         29.38533        42.37882         1.76073
C         30.68487        44.49171         1.66947
C         29.39739        43.75728         1.62631
C         30.69771        45.97151         1.33615
C         29.42033        46.62580         0.98780
C         30.71392        48.64277         0.35818
C         29.44079        47.96925         0.54300
C         30.75680        50.12803         0.07952
C         29.41700        50.77193        -0.20375
C         29.38406        52.14497        -0.39037
C         31.97354        16.81099         0.14148
C         33.09456        18.97573        -0.41275
C         31.91747        18.28113        -0.22331
C         33.14401        20.39066        -0.68759
C         31.83788        21.06421        -0.88768
C         33.13810        23.30158        -1.40379
C         31.84196        22.53691        -1.14426
C         33.05972        24.71263        -0.80092
C         31.81869        25.46985        -1.22677
C         33.06113        27.60570        -1.28948
C         31.82385        26.87914        -1.28719
C         33.06603        29.00275        -1.22787
C         31.81036        29.70059        -1.03989
C         32.95513        31.84726        -1.06233
C         31.77832        31.08661        -0.85744
C         33.00784        33.21834        -0.70310
C         31.83939        33.88687        -0.23807
C         33.14045        36.08916         0.16228
C         31.91032        35.24609         0.47110
C         33.15656        37.60648         0.34734
C         32.05689        37.97388         1.39267
C         33.15460        40.19700         1.52787
C         31.95762        39.47984         1.55657
C         33.14837        41.61940         1.67002
C         31.94005        42.35159         1.63940
C         33.18368        44.46175         1.27463
C         31.94700        43.75306         1.52286
C         33.13351        45.85698         0.88528
C         31.96030        46.57445         0.85098
C         31.89933        47.95542         0.44351
C         34.31371        21.13100        -0.69357
C         35.52520        23.29518        -0.74554
C         34.37223        22.56175        -0.89785
C         35.55667        24.74230        -0.95368
C         34.34998        25.44109        -1.07622
C         35.65751        27.62022        -1.46300
C         34.33181        26.85756        -1.44214
C         35.65016        29.13482        -1.42759
C         34.28876        29.76945        -1.37546
C         35.96400        32.14300        -0.76115
C         34.12528        31.13826        -1.48480
C         35.63963        33.38171        -0.02091
C         34.26349        33.92317        -0.29055
C         36.14612        36.45261        -0.00652
C         34.17325        35.39483        -0.32849
C         35.82692        37.55978         0.73731
C         34.51057        38.21850         0.80698
C         35.66442        40.23977         1.65129
C         34.43950        39.49994         1.32093
C         35.65434        41.60572         1.83679
C         34.39422        42.39621         1.99594
C         34.38215        43.77554         1.38807
C         36.78224        25.46832        -0.89396
C         37.98263        27.57780        -0.53893
C         36.84457        26.87710        -0.97910
C         38.06705        28.99966        -0.43430
C         36.93455        29.84425        -0.94217
C         38.07926        31.85213         0.26187
C         36.88155        31.22492        -0.37202
C         37.95404        33.16506         1.00062
C         36.78161        34.16125         0.73155
C         38.30609        36.05478         1.20568
C         37.32738        35.52841         0.16291
C         38.16016        37.40676         1.63295
C         36.97355        38.15837         1.43960
C         36.88755        39.50617         1.79334
C         39.16373        29.57290         0.19415
C         40.44215        31.60568         1.19630
C         39.31704        31.02342         0.41682
C         40.44175        32.89881         1.58057
C         39.21758        33.74348         1.54597
C         39.25887        35.20926         1.74880
O         28.27681        19.82734         1.39401
O         25.08046        46.93969         2.38429
O         19.19109        39.08366        -0.70588
O         29.91855        37.02640         2.23918
O         24.64233        22.59825        -1.60058
O         18.98543        48.92272         2.04984
O         36.61704        29.70640        -2.35775
O         13.26314        23.89321         1.85923
O         31.59313        21.60881        -2.25415
O         30.75105        45.51791         2.73192
O         30.82714        40.93688         3.21302
O         34.57805        33.23566         1.00188
O         21.41264        54.17930        -3.49979
O         21.88387        13.11998         1.39698
O         11.61903        37.68646        -0.79038
O         17.60481        25.19305         1.59816
O         18.04598        45.59675         2.74017
O         22.10003        25.86976        -2.10970
O         28.24490        37.13751        -0.80042
O         19.12572        16.61072        -2.08178
O         17.39391        51.24631         0.51530
O         39.10130        31.87082        -0.79605
O         17.82238        35.46341         2.27289
O         26.76117        25.94706        -2.47622
O         24.77017        51.49455        -3.04316
O         23.95771        55.52689        -0.15158
O         30.10629        23.15005         0.62557
O         21.30059         9.82114        -1.55540
O         16.20848        26.83420        -1.52282
O         35.18750        31.93854        -1.91028
O         25.01601        12.29285        -1.67657
O         23.42152        42.23441        -0.11492
O         16.32249        40.03946         2.67209
O         35.07669        27.11746        -2.69645
O         24.81709        33.29057         1.45808
O         19.93609        26.33917         1.00319
O          9.93137        35.81513         2.01208
O         23.31580        24.41686         1.17649
O         21.83287        46.82366        -0.77520
O         25.06811        44.48315         3.15472
O         35.25965        35.99852        -0.99352
O         26.31982        35.66596         1.82327
O         16.07478        16.44033        -1.92645
O         38.17634        33.04351         2.43594
O         22.77346        28.05358         0.81767
O         19.23679         9.86212         1.55555
H         19.91414         9.37023         2.06513
O         25.62028         9.80608        -1.93717
H         25.18799        10.55190        -2.41831
O         24.02469        42.13611         3.49739
H         24.50571        42.81717         4.02454
O         18.27006         9.90916        -1.97018
H         19.16245        10.12495        -2.31668
O         33.28267        23.46422        -2.82484
H         32.91205        22.65553        -3.24733
O         13.58170        33.52912        -1.08080
H         12.89192        33.09823        -1.62727
O         36.25001        34.57493         1.99186
H         36.63632        33.98885         2.68706
O         18.30127        14.18441        -2.42322
H         18.78177        14.89726        -2.90373
O         17.89510        33.71585        -1.54448
H         17.13536        33.18729        -1.87296
O         28.09133        23.04173        -2.42723
H         27.23165        23.36157        -2.77628
O         31.66801        50.40811        -0.99796
H         31.30924        50.00311        -1.81388
O         20.10120        27.45167        -2.49771
H         20.88468        27.67076        -3.04950
O         29.28387        26.80987        -3.10943
H         28.42424        26.39064        -3.35556
O          8.48445        31.71587        -1.63409
H          9.28117        32.23809        -1.86561
O         19.22953        29.93229        -2.34232
H         19.18938        29.01334        -2.71417
O         25.69905        37.71884        -1.10058
H         25.47025        38.66251        -1.29724
O         18.39062        19.25206        -2.13126
H         18.52983        18.36006        -2.53740
O         33.00506        16.14187        -0.59210
H         32.79042        16.19693        -1.54559
O         29.04606        39.10867         3.40016
H         29.60560        38.34086         3.66223
O         20.52817        20.18737         2.01524
H         20.82589        21.04315         2.41077
O         24.47763        18.29166         2.17006
H         25.24946        17.73542         2.44043
O         24.82150         9.93216         1.65184
H         25.52321         9.31109         1.96698
O         15.25777        29.22624        -1.98857
H         15.72435        28.50134        -2.46793
O         25.92594        50.63899        -3.13550
H         26.64269        51.25933        -3.41637
O         11.97252        31.14719         2.42343
H         11.08682        30.83984         2.71219
O         27.17821         8.17988         1.83326
H         28.01066         8.64991         2.04986
O         30.82543        36.48355        -1.25997
H         29.96198        36.88253        -1.53223
O         21.82708        49.92752        -2.52827
H         21.86169        48.95042        -2.43745
O         25.81144        47.92013        -1.64745
H         25.56395        48.63763        -2.27659
O         32.47518        37.47515         2.67771
H         32.18429        36.52993         2.74199
O         31.86012        34.93464         1.88501
H         32.53245        34.24236         2.06816
O         23.99779        53.94784        -3.45149
H         23.30006        53.60216        -4.05447
O         20.06284        24.28669        -2.01811
H         20.52418        24.92194        -2.61738
O         24.73090        40.15045        -0.46889
H         24.27866        41.04939        -0.62632
O         17.97345        41.95810        -0.46677
H         18.62305        41.34306        -0.87641
O          8.13864        28.89026         2.32493
H          8.82518        28.25820         2.62912
O         22.86088        39.96871         2.74849
H         23.64389        40.22583         3.29737
O         28.06232        24.88218         0.76855
H         28.84924        24.40428         1.13556
O         14.20677        38.07919         3.13866
H         14.97824        38.50794         3.57229
O         14.32174        33.48766         2.48427
H         15.04043        33.90934         3.00017
O         24.69350        29.57577         1.37342
H         24.13929        28.84336         1.73873
O         32.94656        24.51439         0.64380
H         32.78160        25.38325         1.06553
O         30.77122        31.40336         1.25039
H         30.67016        30.43237         1.35124
O         26.54623        16.70293        -1.63696
H         27.30668        17.04589        -2.15054
O         21.71125        22.66873         2.04366
H         22.06012        23.55725         2.30101
O         14.94085        43.71566        -1.02210
H         15.78601        43.21250        -0.99890
O         10.97740        20.45110        -0.61650
H         11.33573        20.62814        -1.51009
O         23.36349        33.65724        -1.86323
H         22.57090        33.36756        -2.36284
O         25.40031        39.73032         3.13383
H         26.22022        39.90620         3.64388
O         22.08038        29.71848        -2.33705
H         21.23308        30.06897        -2.70967
O         32.79602        38.26261        -0.88641
H         33.31468        37.85754        -1.61224
O         38.00117        35.33062        -1.08595
H         37.33437        35.36664        -1.80424
O         12.66327        42.06458         2.54743
H         13.30685        41.56495         3.09473
O         34.32161        42.66015         3.46218
H         33.40751        42.95750         3.66478
O         26.09832        16.07211         1.93827
H         25.48855        15.46499         2.40990
H          4.85451        31.29817        -0.12193
H          4.88710        33.74826        -0.26718
H          7.30392        26.96836         0.36138
H          6.02800        29.24063         0.58887
H          6.09136        35.89591        -0.16444
H          7.33673        38.07493         0.00112
H          9.80347        22.65013         0.15532
H          8.54341        24.81995         0.20330
H          8.61966        40.21143        -0.03551
H          9.89016        42.29182        -0.30042
H         12.38544        18.34602         0.21869
H         11.51459        20.61675         1.35482
H         11.12628        44.45901        -0.25399
H         12.35850        46.64492         0.00573
H         14.97267        14.05673         0.08552
H         13.67169        16.24784         0.27805
H         13.69511        48.57812        -0.53139
H         14.83184        50.24626        -1.39385
H         17.27035         9.83234        -0.16917
H         16.10910        11.92614        -0.30234
H         16.39140        52.29774        -2.50867
H         17.36308        54.62158        -2.26973
H         19.86867         5.41750        -0.03349
H         18.60813         7.49961        -0.03366
H         18.63408        56.76355        -2.60467
H         19.88463        58.87686        -2.83724
H         23.30915         2.08487        -0.06971
H         21.13660         3.29505        -0.06007
H         23.23841        62.29411        -2.43276
H         21.14086        61.03695        -2.87371
H         25.46119         3.33622        -0.02186
H         26.68840         5.49529         0.10575
H         26.53562        59.02855        -1.27925
H         25.31415        61.11328        -1.74231
H         27.88725         7.60911        -0.06106
H         29.12025         9.86207         0.37668
H         29.03004        54.83117        -0.56395
H         27.75636        56.90979        -0.81476
H         30.37411        11.98332         0.13197
H         31.60658        14.14148         0.06274
H         31.19496        50.63044         0.98596
H         30.31941        52.71991        -0.32758
H         32.27939        16.75110         1.22604
H         34.04494        18.42429        -0.34237
H         34.07545        46.34399         0.59168
H         32.84093        48.48120         0.22516
H         35.26164        20.61266        -0.47480
H         36.46695        22.79183        -0.47495
H         36.59918        42.11857         2.07460
H         35.33396        44.31110         1.25227
H         37.70215        24.92057        -0.63781
H         38.84059        26.99066        -0.17558
H         38.96167        37.85180         2.24262
H         37.77220        40.02323         2.19386
H         39.95190        28.90947         0.58337
H         41.34279        30.98903         1.33809
H         41.33527        33.32975         2.05742
H         39.98044        35.61000         2.47851
