         404
 CSIRO Nanostructure Databank - Neutral Graphene Oxide Data Set
C          2.08668         3.75359         3.35914
C          0.91003         4.47735         3.68298
C          1.69746         6.45387         2.43179
C          0.68918         5.76364         3.25446
C          1.49732         7.81978         1.83799
C          0.20613         8.53599         1.98380
C          1.22210        10.51579         0.94835
C          0.08683         9.79987         1.53352
C          1.15210        11.96651         0.81772
C          0.00465        12.71337         0.97743
C          1.06827        14.86888         0.42834
C         -0.02627        14.14138         0.86176
C          1.08602        16.29732         0.18493
C         -0.11172        17.04475         0.17228
C          1.09967        19.14485        -0.11801
C         -0.10946        18.41620        -0.03173
C          1.09499        20.56484        -0.36754
C         -0.00670        21.24456        -0.89422
C          1.19659        23.39196        -0.93486
C          0.02870        22.62410        -1.12233
C          1.21445        24.83105        -1.14926
C          0.03711        25.53805        -1.42765
C          1.23123        27.65090        -1.47409
C          0.04783        26.92628        -1.58942
C          1.19043        29.13926        -1.73978
C          0.10040        29.85878        -0.97131
C          1.23847        32.03725        -1.20791
C          0.12514        31.19887        -0.79235
C          1.22389        33.41950        -1.03560
C          0.04574        34.12323        -0.58581
C          1.27963        36.22729        -0.27391
C          0.06418        35.45088        -0.26662
C          1.27853        37.58677         0.14992
C          4.23175         3.60842         2.14140
C          3.04895         4.27921         2.47606
C          3.82729         6.24138         0.99116
C          2.74881         5.57661         1.82375
C          3.73934         7.68194         0.67167
C          2.34642         8.28920         0.65311
C          3.49493        10.48027        -0.08490
C          2.35697         9.80989         0.59208
C          3.53270        11.97137        -0.07035
C          2.45437        12.71590         0.68700
C          3.56467        14.83460        -0.21220
C          2.28487        14.10301         0.09406
C          3.57338        16.29778        -0.06800
C          2.33290        16.99258         0.01386
C          3.58574        19.11272        -0.01457
C          2.33924        18.42912        -0.01748
C          3.62563        20.57506         0.11714
C          2.30161        21.34769        -0.08084
C          3.63872        23.41872        -0.50683
C          2.38965        22.74816        -0.50901
C          3.67553        24.84211        -0.78980
C          2.45146        25.54311        -1.04159
C          3.69193        27.68219        -1.18226
C          2.45134        26.96449        -1.22039
C          3.67457        29.13632        -1.36902
C          2.50741        29.83487        -1.51259
C          3.75039        32.09702        -1.76801
C          2.45659        31.32117        -1.67240
C          3.75181        33.59020        -1.57541
C          2.42902        34.26233        -1.27310
C          3.70645        36.34529        -0.65037
C          2.47885        35.62941        -0.70320
C          3.69179        37.69719        -0.17309
C          2.44933        38.30627         0.17983
C          6.51313         3.57439         1.19556
C          5.27025         4.22696         1.37878
C          6.23945         6.25609         0.38318
C          5.12416         5.56221         0.90471
C          6.13749         7.67132         0.13748
C          4.85917         8.34971         0.24677
C          6.05295        10.54162        -0.20448
C          4.78045         9.71817        -0.40856
C          6.05394        11.96229        -0.19901
C          4.83088        12.69382        -0.16387
C          6.06640        14.80621        -0.04867
C          4.83809        14.08504        -0.13648
C          6.05093        16.24305         0.03242
C          4.81507        16.97137        -0.00787
C          6.03436        19.13841         0.14510
C          4.81038        18.41323         0.00950
C          6.09747        20.53626         0.01552
C          4.88398        21.29503        -0.12246
C          6.13769        23.39438        -0.54328
C          4.85719        22.68424        -0.34074
C          6.16246        24.86854        -0.56405
C          4.90321        25.55938        -0.78417
C          6.18573        27.68807        -1.02146
C          4.88948        26.96964        -0.99493
C          6.11241        29.14261        -0.68751
C          4.97148        29.86070        -1.33463
C          6.13058        32.11290        -0.84146
C          5.02110        31.34495        -1.49571
C          6.18481        33.57404        -1.08315
C          5.01686        34.29223        -1.22812
C          6.16613        36.41922        -0.67371
C          4.97470        35.71793        -0.93665
C          6.14110        37.76705        -0.18061
C          4.90363        38.39719         0.01413
C          8.83419         3.42143         0.46864
C          7.59408         4.16230         0.50780
C          8.52672         6.31319        -0.44861
C          7.44804         5.54524         0.09264
C          8.51509         7.73985        -0.42278
C          7.29747         8.42020        -0.17316
C          8.51421        10.59157        -0.39860
C          7.27952         9.86518        -0.23977
C          8.53739        12.00202        -0.34048
C          7.29304        12.68918        -0.16959
C          8.56529        14.77203         0.38310
C          7.28208        14.09640        -0.02163
C          8.52620        16.26871         0.23218
C          7.29452        16.92656         0.20605
C          8.53191        19.10324         0.74284
C          7.23771        18.36881         0.50005
C          8.52190        20.56801         0.53546
C          7.37494        21.22275         0.17092
C          8.59035        23.45994         0.19721
C          7.43008        22.65810        -0.19824
C          8.60318        24.83271        -0.06377
C          7.39082        25.51952        -0.45923
C          8.65814        27.74421        -0.27091
C          7.46354        26.97531        -0.70845
C          8.64059        29.17504        -0.22693
C          7.33878        29.88309        -0.28740
C          8.63967        32.09984        -0.26440
C          7.33555        31.39218        -0.31720
C          8.67105        33.50150        -0.46565
C          7.48647        34.23319        -0.95042
C          8.67335        36.39235        -0.22796
C          7.47745        35.77074        -0.82297
C          8.59933        37.79528         0.14473
C          7.36557        38.44458         0.13082
C         11.24193         3.38863        -0.45389
C          9.86615         3.68044        -0.44143
C         10.88558         6.32059        -1.24005
C          9.63774         5.68521        -1.05505
C         10.85798         7.74763        -1.18447
C          9.69132         8.46461        -0.80035
C         10.87511        10.63015        -1.15812
C          9.71283         9.89089        -0.74336
C         10.98402        12.06772        -0.91117
C          9.78551        12.74192        -0.48325
C         11.01609        14.86297        -0.18425
C          9.80312        14.12084        -0.18335
C         11.02887        16.26443         0.14130
C          9.77763        16.98807         0.33808
C         11.07291        19.08508         0.90607
C          9.79295        18.36516         0.55348
C         11.04837        20.57960         0.65217
C          9.75538        21.27966         1.04437
C         11.08627        23.50434         0.63993
C          9.75399        22.78815         0.79551
C         11.06011        24.91386         0.22185
C          9.84606        25.58145         0.04291
C         11.07654        27.72866         0.13953
C          9.84801        27.02458        -0.06301
C         11.02899        29.18475         0.33170
C          9.79592        29.92260         0.02263
C         11.07885        32.09198         0.01909
C          9.82561        31.37216        -0.02084
C         11.08868        33.51768        -0.03117
C          9.86164        34.22750        -0.22780
C         11.04224        36.28618         0.59008
C          9.83923        35.66196        -0.08196
C         11.02595        37.78975         0.56121
C          9.81076        38.47113         0.48324
C         13.45015         3.56815        -1.47503
C         12.21065         4.16727        -1.18109
C         13.25765         6.33796        -1.86481
C         12.09652         5.58667        -1.47151
C         13.05350         7.69892        -2.20838
C         11.94044         8.45879        -1.76723
C         13.73305        10.96319        -1.79599
C         11.84361         9.87806        -1.85543
C         13.53115        12.15650        -1.08708
C         12.22793        12.79229        -0.88419
C         13.48051        14.87109        -0.26600
C         12.24091        14.16474        -0.46133
C         13.49696        16.26546        -0.00306
C         12.26275        16.98510         0.17194
C         13.52376        19.11659         0.39125
C         12.30575        18.38617         0.41013
C         13.50165        20.53526         0.47566
C         12.26142        21.27443         0.54940
C         13.53333        23.42927         0.26024
C         12.32410        22.72136         0.50622
C         13.51017        24.86737         0.13106
C         12.31839        25.60125         0.15744
C         13.54082        27.78865         0.18788
C         12.30255        27.05292         0.17436
C         13.57735        29.16601         0.11346
C         12.35792        29.95076         0.31035
C         13.52283        32.10574        -0.14620
C         12.32392        31.39981         0.03453
C         13.53211        33.51448        -0.15085
C         12.33329        34.24154        -0.01654
C         13.55406        36.40925         0.20698
C         12.35549        35.67764         0.15240
C         13.50313        37.80102         0.72619
C         12.24198        38.44085         0.82071
C         15.83331         3.60147        -1.98287
C         14.60879         4.30166        -1.82101
C         15.82915         6.44588        -1.79585
C         14.57957         5.73649        -1.90740
C         15.95322         7.90316        -1.63211
C         14.97493         8.79508        -2.08122
C         15.99257        10.67856        -0.91881
C         14.89101        10.14714        -1.63839
C         15.95223        12.04373        -0.51960
C         14.72833        12.77081        -0.58066
C         15.95138        14.81307         0.00533
C         14.72038        14.15293        -0.25676
C         15.97349        16.23628         0.11486
C         14.74468        16.96293         0.11690
C         16.01955        19.04969         0.25099
C         14.77220        18.38277         0.26027
C         16.05424        20.51719         0.45318
C         14.76038        21.29432         0.54647
C         16.03413        23.45995         0.16169
C         14.78343        22.74388         0.26295
C         16.04374        24.84592         0.01451
C         14.77230        25.59699        -0.25602
C         16.11483        27.75410         0.25716
C         14.80742        27.01623         0.27638
C         16.12206        29.20455         0.03056
C         14.83316        29.87505        -0.22270
C         16.06455        32.11467        -0.21270
C         14.79691        31.38051        -0.37385
C         16.07177        33.49541        -0.12144
C         14.79921        34.25092        -0.46805
C         16.04680        36.28937        -0.00169
C         14.79386        35.69263        -0.01196
C         15.94871        38.24490         0.98138
C         14.59297        38.52389         1.27389
C         18.31290         3.59874        -2.07813
C         17.04269         4.28168        -1.88509
C         18.23193         6.28572        -1.06295
C         17.01329         5.68623        -1.62448
C         18.31403         7.73210        -0.85187
C         17.13308         8.49926        -1.05283
C         18.35819        10.49842        -0.24683
C         17.16420         9.88835        -0.74650
C         18.36428        11.90057         0.04178
C         17.15819        12.66989        -0.08972
C         18.40936        14.74013         0.37259
C         17.16864        14.07163         0.11098
C         18.45836        16.16495         0.33457
C         17.22516        16.91456         0.17709
C         18.52864        19.01613        -0.02147
C         17.23128        18.32793         0.15623
C         18.57018        20.51734         0.00472
C         17.29099        21.27536         0.09988
C         18.52196        23.39734         0.31135
C         17.30626        22.75106         0.28611
C         18.62743        24.82172        -0.04520
C         17.29848        25.58666        -0.20325
C         18.58306        27.72546        -0.01824
C         17.36418        27.03686        -0.02801
C         18.58636        29.17395         0.01255
C         17.32781        29.87016        -0.12360
C         18.61020        32.06621         0.01788
C         17.32031        31.33739        -0.31496
C         18.47328        33.44604         0.55828
C         17.26549        34.21596         0.22508
C         18.42072        36.35875         0.86403
C         17.27344        35.61631         0.34730
C         18.34061        37.70452         1.38718
C         17.11534        38.41363         1.70293
C         19.50485         4.19390        -1.83346
C         20.78402         6.28436        -1.05832
C         19.55514         5.49132        -1.14068
C         20.75842         7.57829        -0.63557
C         19.53154         8.33017        -0.47759
C         20.71992        10.38248         0.34826
C         19.55056         9.73059        -0.12526
C         20.72604        11.73574         0.62312
C         19.56643        12.53677         0.44842
C         20.79037        14.67242         0.89028
C         19.59574        13.97937         0.59438
C         20.84392        16.05800         0.83458
C         19.70804        16.81522         0.49570
C         21.05600        19.03611         0.41090
C         19.81375        18.25518         0.16082
C         21.06916        20.37775         0.49877
C         19.81823        21.17859         0.51690
C         21.01185        23.48542         0.75596
C         19.77474        22.68312         0.67959
C         21.02226        24.83349         0.59345
C         19.84604        25.59191         0.23518
C         21.04225        27.76348         0.23853
C         19.83520        26.99043         0.10651
C         21.03009        29.12574         0.28764
C         19.81187        29.88938         0.18796
C         21.01286        32.08846         0.53195
C         19.83253        31.30568         0.32468
C         20.99818        33.45570         0.66148
C         19.74944        34.19862         0.88301
C         20.83268        36.37508         1.36474
C         19.67894        35.68138         0.98604
C         20.76529        37.71980         1.74799
C         19.52872        38.33851         1.82889
O          2.99199        34.24760        -2.63231
O         18.06321        25.10873        -1.36629
O          2.25948         7.67884         3.07986
O         19.58657        21.78340         1.84098
O         19.27044        18.50691        -1.18877
O         15.56275        20.92486         1.76243
O         14.76860        30.51263        -1.56158
O         18.91429        33.55947         1.94146
O          6.99888        22.82861        -1.59732
O         18.75181         5.51903         0.07938
O         15.48165        27.24401         1.54356
O          2.70459         5.47662         0.37493
O          7.08250        27.33722        -2.11352
O         14.01250         8.33020        -2.99849
O         10.36282        23.44142         1.95669
O          6.36547        29.38405         0.72318
O         17.92022        21.01046        -1.21262
O          3.03467        31.71718        -2.97138
O          9.45013         4.42958        -1.58668
O          6.30352        31.90128         0.60895
O          7.75434        35.11464        -2.09406
O         18.19291        31.87414        -1.36936
O          7.71032        18.64938         1.87932
O          5.41908        30.47951        -2.59796
O         12.73800        10.54197        -2.69631
O          2.85915        21.09303         1.25185
O         16.13470        37.64558        -0.28158
O          3.06380        11.28700        -1.26603
O          2.69394        14.29921        -1.28778
O         11.67604        29.62826         1.57226
O          1.68013         7.82993        -0.55062
H          2.24724         8.05451        -1.31829
O         14.70928        25.77647        -1.71691
H         14.89987        24.91231        -2.13959
O          9.62803        21.10739         2.50292
H         10.07910        21.89119         2.90467
O          2.97775        12.89583         2.03995
H          2.24327        13.20005         2.61371
O          4.74247         9.42036        -1.83574
H          4.28667        10.18628        -2.26127
O         14.84102        34.34108        -1.94212
H         14.03284        34.81391        -2.23392
O          8.67067        14.54227         1.84750
H          8.05109        15.16323         2.28791
O         11.12836        18.90603         2.37850
H         10.45535        19.53702         2.75084
O          0.87773        29.28504        -3.16142
H          1.19491        30.16695        -3.45396
O         10.91787        35.92867         2.01735
H         10.11412        36.37455         2.35995
H          2.25032         2.76286         3.80584
H          0.16550         3.99599         4.33341
H         -0.20185         6.31281         3.58834
H         -0.63493         8.04176         2.49069
H         -0.86494        10.33276         1.66345
H         -0.95574        12.21478         1.17053
H         -0.97818        14.64691         1.07664
H         -1.07367        16.52682         0.28849
H         -1.06906        18.94903        -0.07639
H         -0.93022        20.69708        -1.12824
H         -0.88306        23.10242        -1.50274
H         -0.92039        25.00913        -1.51976
H         -0.89017        27.44674        -1.82621
H         -0.77046        29.28431        -0.62168
H         -0.72372        31.67421        -0.28039
H         -0.90778        33.58195        -0.52430
H         -0.86552        35.94765         0.04687
H          0.32971        38.05059         0.45531
H          4.41688         2.60882         2.56251
H          2.45059        39.35289         0.51674
H          6.63321         2.55602         1.59462
H          4.87469        39.43123         0.38827
H          8.96627         2.62383         1.21455
H          7.31289        39.50076         0.43387
H         11.62078         2.54209         0.13722
H          9.78915        39.56246         0.62394
H         13.55764         2.48327        -1.32722
H         12.22482        39.51784         1.04979
H         15.82079         2.50556        -2.07339
H         14.35604        39.33942         1.97483
H         18.28010         2.58898        -2.51377
H         17.12937        39.07813         2.57987
H         20.44944         3.69735        -2.10036
H         21.73737         5.81073        -1.33593
H         21.71227         8.11495        -0.53543
H         21.64430         9.80856         0.49818
H         21.66052        12.19363         0.97408
H         21.71235        14.12013         1.11412
H         21.80468        16.56026         1.01127
H         22.00912        18.48911         0.46085
H         22.02118        20.90152         0.66902
H         21.94004        22.96838         1.03633
H         21.97448        25.36492         0.72898
H         22.00810        27.24434         0.29919
H         21.98563        29.65678         0.39223
H         21.99139        31.58773         0.50364
H         21.95313        33.99979         0.65639
H         21.79480        35.84870         1.42481
H         21.67551        38.25018         2.05884
H         19.45804        39.36147         2.22541
