         294
 CSIRO Nanostructure Databank - Neutral Graphene Oxide Data Set
C          1.41044         2.12909         1.70280
C          1.40029         3.57696         1.77534
C          2.55370         1.42283         1.57387
C          2.52221         4.31678         1.52043
C          1.33497         6.42596         1.06853
C          1.29467         7.78515         0.59811
C          2.50230         5.76945         1.34222
C          2.41383         8.53916         0.42295
C          1.12720        10.57875        -0.46994
C          1.11935        11.92070        -0.62087
C          2.38407         9.73216        -0.53921
C          2.34830        12.70748        -0.72404
C          1.26087        14.78576         0.06684
C          1.28677        16.06958         0.49251
C          2.43638        14.01497        -0.31992
C          2.58027        16.81640         0.70245
C          2.48094        18.30746         0.47040
C          3.88142         2.13136         1.67378
C          3.77448         3.56228         1.11025
C          5.01604         1.46899         0.93855
C          5.07239         4.35827         1.38174
C          3.79702         6.56491         1.46701
C          3.72216         7.99596         0.89317
C          4.97322         5.79005         0.78742
C          4.99772         8.65226         0.46041
C          3.62476        10.66090        -0.33480
C          3.51690        11.89963        -1.27223
C          4.93869         9.83684        -0.49787
C          4.83568        12.74429        -1.52640
C          3.78979        14.66927        -0.06877
C          3.65621        16.18331        -0.16711
C          4.94930        14.11828        -0.86995
C          4.80493        17.02228        -0.61041
C          3.56148        19.04964         0.14890
C          4.84933        18.43273        -0.15198
C          6.19664         2.16577         0.65697
C          6.29002         3.60376         0.89189
C          7.29363         1.51171         0.03949
C          7.48067         4.29980         0.79768
C          6.31604         6.50467         0.81095
C          6.30957         7.92444         0.49864
C          7.48710         5.76277         0.80972
C          7.47618         8.60308         0.18947
C          6.15362        10.76068        -0.27092
C          6.14766        11.88405        -1.34129
C          7.47051         9.97535        -0.30880
C          7.34225        12.79315        -1.13073
C          6.06969        14.86551        -1.08801
C          6.07726        16.38432        -1.14057
C          7.32563        14.21922        -1.66729
C          7.31764        17.02424        -0.58156
C          6.04603        19.06436         0.00772
C          7.31205        18.35791        -0.16477
C          8.62935         2.04231         0.20904
C          8.73604         3.50842         0.74445
C          9.80643         1.41836        -0.40272
C         10.12087         4.15900         0.62676
C          8.79306         6.48124         0.85146
C          8.80761         8.01630         0.63801
C         10.07533         5.70138         0.74666
C          9.98850         8.49046        -0.20093
C          8.62417        10.59481        -0.72588
C          8.63774        12.05603        -1.04070
C          9.88798         9.80223        -0.96448
C          9.71274        12.80986        -1.80799
C          8.63215        14.91358        -1.20746
C          8.59536        16.23625        -0.47175
C          9.81807        14.25656        -1.35899
C          9.80447        17.10458        -0.77547
C          8.52768        19.04716         0.10670
C          9.79260        18.50876        -0.25194
C         10.96329         2.14281        -0.73703
C         10.86287         3.66163        -0.64394
C         12.12190         1.52758        -1.22390
C         12.22787         4.28847        -0.63057
C         11.33076         6.43378         0.32241
C         11.16166         7.82298        -0.21083
C         12.31279         5.61993        -0.47976
C         12.43772         8.33815        -0.89445
C         11.18210        10.63324        -0.80733
C         11.31054        11.96458        -0.22069
C         12.52173         9.85302        -0.89832
C         12.47677        12.70407        -0.51319
C         11.16151        14.91534        -1.13702
C         11.12127        16.42982        -1.00129
C         12.43281        14.19568        -0.72638
C         12.27660        17.22982        -0.39578
C         10.94606        19.27410        -0.25022
C         12.26199        18.73565        -0.78344
C         13.42446         2.27105        -1.46579
C         13.45587         3.43592        -0.46676
C         14.68661         1.38644        -1.27601
C         14.72087         4.30801        -0.55183
C         13.46013         6.30257         0.18589
C         13.66573         7.70554        -0.25904
C         14.68909         5.46070         0.51104
C         14.80185         8.35439         0.10351
C         13.71015        10.55720        -0.46494
C         13.69085        11.94721        -0.59247
C         14.76517         9.83187         0.32514
C         15.05996        12.54246        -0.58464
C         13.65279        15.02236        -0.27831
C         13.41207        16.45456         0.22138
C         14.48133        14.32613         0.82258
C         14.65380        17.04741         0.77267
C         13.47034        19.61312        -0.48218
C         14.64930        19.30260         0.15955
C         15.98409         2.16620        -1.00693
C         15.97547         3.47746        -0.50256
C         17.20675         1.51060        -1.25258
C         17.25415         4.27965        -0.42955
C         15.98796         6.25396         0.50036
C         16.01879         7.62300         0.47545
C         17.24220         5.43692         0.64554
C         17.26688         8.36748         0.75200
C         16.10957        10.48668         0.34352
C         15.99560        11.94923         0.45110
C         17.23415         9.83002         0.78440
C         17.13448        12.71775         1.03908
C         15.87427        14.87576         0.90764
C         15.84850        16.30180         0.98206
C         17.11302        14.20505         1.01241
C         17.08007        16.99928         1.11775
C         15.94614        19.80823        -0.14240
C         17.14954        19.17386         0.31390
C         18.46557         2.02345        -0.70938
C         18.46355         3.41409        -0.14297
C         19.80435         1.46277        -1.05452
C         19.84113         4.06411         0.06989
C         18.51026         6.27989         0.50736
C         18.46024         7.70729         0.91760
C         19.80718         5.57838         0.29485
C         19.74530         8.40324         1.21035
C         18.44143        10.60425         1.02185
C         18.40571        11.97722         1.07429
C         19.73796         9.93539         1.42024
C         19.61861        12.81940         0.75566
C         18.32762        14.91240         1.12405
C         18.32870        16.33920         1.00271
C         19.57714        14.14289         1.56241
C         19.54476        17.06938         0.80501
C         18.39325        19.23802        -0.26132
C         19.62044        18.39115         0.03772
C         20.86474         2.26628        -1.26036
C         20.69852         3.77779        -1.19235
C         21.96022         4.62212        -1.19353
C         21.17812         6.17980         0.62466
C         21.06170         7.69650         0.95495
C         22.11606         5.76159        -0.49801
C         22.24446         8.56536         0.73278
C         20.95853        10.67921         0.87497
C         20.91956        12.05417         0.77155
C         22.18319         9.91935         0.69948
C         22.03902        12.92414         0.43952
C         20.91478        14.95737         1.49847
C         20.77982        16.43060         1.07833
C         21.96884        14.25962         0.64223
C         21.94177        17.20407         1.15253
C         20.77147        19.23623         0.53854
C         21.90088        18.62267         0.98677
O         10.23577        12.32742        -2.79920
O         16.01987        12.25521         1.89363
O         20.49773         7.78501         2.32282
O         10.37054        17.00511        -2.11823
O          4.46476         8.91390         1.80571
O         12.46053         6.51038         1.35775
O         18.24914         2.32511         0.77239
O         12.15100        14.50222        -2.13824
O         12.25800        16.85430         1.02618
O         17.02554        18.33091         1.44961
O         13.92421        13.63550         1.66420
O          4.79835        13.12271        -2.89357
O         11.93865        10.51486        -2.04796
O         19.17510         6.26179        -0.82949
O         15.53136        13.16493        -1.52391
O          9.57891         6.10878         2.05626
O          8.04993        12.78498         0.13326
O          3.66893        16.73054        -1.51208
O         14.64101        18.32177         1.20423
O          8.77823         2.42244         1.66126
O          3.50731        11.21668         0.98073
H          3.90544        10.59371         1.63450
O          2.97502        16.64466         2.10596
H          2.23582        16.96465         2.66469
O          7.31098        14.21170        -3.09700
H          6.88323        15.05412        -3.38149
O         19.35390        13.79353         2.95006
H         18.83198        12.96236         2.99792
O          4.25491         2.07237         3.07388
H          4.86413         2.83497         3.25761
O          6.10081        16.67180        -2.58658
H          5.16632        16.56395        -2.88555
O          3.66203         3.33141        -0.31810
H          3.57475         4.21177        -0.75711
O          4.16494        14.35642         1.30298
H          3.56493        14.85897         1.90346
O          6.39190        11.27700        -2.63001
H          5.95356        11.93490        -3.25891
O          6.03260        11.30920         1.04580
H          6.81658        11.88640         1.20256
O         12.38119         7.87842        -2.26271
H         11.70597         8.44403        -2.71130
O          8.74826        15.87635         0.94545
H          8.02053        15.25995         1.17974
O         20.07694        17.93530        -1.29823
H         20.41828        18.72015        -1.77720
O         13.41312         2.82415         0.84549
H         12.57292         3.08359         1.30300
O          3.10511        11.44270        -2.57971
H          3.52492        12.09648        -3.21330
O         14.47077         0.49457        -0.18123
H         14.18159         1.04925         0.58244
O         14.71779         5.01058        -1.83059
H         14.35680         4.38958        -2.51246
O          2.38158         9.07584        -1.82412
H          2.61933         9.76586        -2.49419
O         10.44661        12.36695         0.74151
H         10.74241        13.20419         1.15194
O         17.39405         4.84798        -1.75057
H         16.50209         5.18398        -2.02571
O         21.73566         5.59020         1.80886
H         21.21460         5.91371         2.57626
O         19.96996         4.13941        -2.38531
H         19.48008         4.97953        -2.21070
O          9.02218         8.62541         1.94008
H          9.51571         7.96786         2.48593
O         19.42816        13.23497        -0.63063
H         19.53439        12.45272        -1.21129
O          5.00471         9.23511        -1.79491
H          5.37081         9.90369        -2.43312
O         13.44114         2.83384        -2.81239
H         13.34370         2.09792        -3.45311
O          5.31377         4.45962         2.80840
H          4.76933         5.20568         3.17599
O         10.09058         4.14890        -1.76396
H         10.59714         3.97022        -2.58399
O          4.59494         5.74916        -0.61353
H          5.39189         5.58510        -1.15938
O         14.30411         9.93287         1.72871
H         14.62240        10.79038         2.09615
O          9.81704         9.41344        -2.36558
H          9.90059        10.24439        -2.89624
O         21.52015        14.99036         2.81279
H         20.95792        14.43577         3.40541
O         19.79129        10.15845         2.86098
H         20.30703         9.40566         3.23842
O         20.47448         3.44050         1.18720
H         19.84605         2.76514         1.53979
O         14.49179        15.29414        -1.41757
H         14.02237        14.98007        -2.22598
O         12.23671        18.79872        -2.23174
H         11.42101        18.34080        -2.55596
O         14.55153         4.90734         1.83397
H         13.78816         5.35582         2.26567
O         10.92547         3.71455         1.73615
H         10.50598         4.04313         2.56120
O          4.02778         6.70246         2.88812
H          4.44382         7.59208         3.02087
O         17.29525         4.83636         1.95097
H         16.37326         4.59480         2.21202
H          0.44041         1.61125         1.73690
H          0.44456         4.06995         2.00569
H          2.53943         0.32324         1.53904
H          0.39105         5.86279         1.03522
H          0.32487         8.15200         0.23433
H          0.16186        10.05685        -0.37505
H          0.15132        12.44488        -0.58204
H          0.27761        14.30426        -0.04204
H          0.34451        16.58381         0.73872
H          1.52356        18.80137         0.70029
H          4.99901         0.37836         0.77933
H          3.49265        20.14816         0.11750
H          7.15124         0.53394        -0.44349
H          6.07947        20.10560         0.36111
H          9.74304         0.34946        -0.65653
H          8.47829        20.08653         0.46387
H         12.13773         0.42788        -1.28186
H         10.89663        20.31602         0.10003
H         14.83642         0.75695        -2.19456
H         13.53418        20.45316        -1.19188
H         17.20711         0.55356        -1.79637
H         16.03303        20.47672        -1.01105
H         19.90343         0.36909        -1.14221
H         18.50892        19.89051        -1.14071
H         21.84456         1.83453        -1.51685
H         22.72694         4.34974        -1.93767
H         23.04208         6.34365        -0.63314
H         23.21362         8.07139         0.57077
H         23.10841        10.47940         0.49691
H         22.94256        12.49500        -0.02091
H         22.83371        14.87575         0.35025
H         22.88356        16.73667         1.47089
H         20.73965        20.32568         0.39023
H         22.78811        19.21464         1.25534
