         232
 CSIRO Nanostructure Databank - Neutral Graphene Oxide Data Set
C        -11.07177         0.64680        -0.31075
C         -9.79825         1.41531        -0.04054
C         -8.60389         0.70186        -0.63135
C         -7.30149         1.38993        -0.53278
C         -6.14228         0.64047        -0.54973
C         -4.83481         1.34863        -0.59601
C         -3.59458         0.63571        -0.15646
C         -2.51025         1.36739         0.58701
C         -1.21407         0.64014         1.03326
C          0.05591         1.40626         0.71502
C          1.22523         0.71300         0.31952
C          2.46644         1.46664        -0.02425
C          3.70517         0.76919        -0.67224
C          4.96484         1.48706        -0.58185
C          6.21099         0.70104        -0.47134
C          7.50033         1.44215        -0.47429
C          8.76195         0.69342        -0.59006
C          9.92914         1.37152        -0.26269
C         11.14675         0.59639        -0.07538
C         -9.77659         2.89293        -0.37913
C         -8.59460         3.56906        -0.51206
C         -7.31057         2.85407        -0.53763
C         -6.13969         3.56628        -0.60067
C         -4.85203         2.85225        -0.59468
C         -3.64649         3.59288        -0.12118
C         -2.51748         2.85500         0.52832
C         -1.24073         3.58049         0.70430
C         -0.03848         2.84452         0.87983
C          1.08545         3.63548         1.22296
C          2.85978         2.65612         0.70108
C          3.89556         3.50458         0.33558
C          4.98422         2.87680        -0.38689
C          6.19145         3.58170        -0.94407
C          7.57909         2.90682        -0.86416
C          8.72371         3.56361        -0.06038
C          9.88414         2.77132         0.05499
C         -8.53564         5.03485        -0.53355
C         -7.38725         5.74915        -0.65205
C         -6.07425         5.04678        -0.92031
C         -4.91406         5.77643        -0.24439
C         -3.79644         5.01090         0.30834
C         -2.48874         5.73567         0.64268
C         -1.21627         4.98635         0.66088
C          0.00870         5.71292         0.67615
C          1.21337         4.99770         0.92973
C          2.53310         5.67888         1.03392
C          3.86724         4.90363         0.90007
C          5.10568         5.71220         0.74890
C          6.35480         5.09876         0.94260
C          7.56354         5.72413         0.49792
C          8.74317         4.91257         0.33152
C         -7.36989         7.26502        -0.49515
C         -6.00884         7.91144        -0.85912
C         -4.86735         7.15506        -0.19498
C         -3.67937         7.85079         0.23461
C         -2.46838         7.18424         0.45232
C         -1.19162         7.86523         0.45560
C          0.01814         7.15328         0.56727
C          1.31510         7.82825         0.51263
C          2.54156         7.12937         0.68820
C          3.78115         7.79128         0.43766
C          5.04831         7.09688         0.47007
C          6.27507         7.79889         0.23525
C          7.50160         7.09806         0.20251
C         -5.97856         9.39180        -0.57035
C         -4.91814        10.03272        -0.06935
C         -3.71264         9.33414         0.50024
C         -2.38763         9.98539         0.18083
C         -1.20961         9.30768         0.25505
C          0.09254        10.06691         0.12060
C          1.34534         9.22374         0.22299
C          2.55910         9.87634         0.04962
C          3.78578         9.18101         0.12358
C          5.02680         9.86467        -0.10689
C          6.22344         9.20477        -0.04978
C        -11.08944        -0.70962        -0.35443
C         -9.88181        -1.52670        -0.36554
C         -8.62930        -0.80440        -0.70692
C         -7.35545        -1.50939        -0.51309
C         -6.17393        -0.81273        -0.43039
C         -4.99143        -1.52241         0.23114
C         -3.63466        -0.85389        -0.01497
C         -2.40871        -1.55940         0.41493
C         -1.16095        -0.79299         0.60613
C          0.02611        -1.43382         0.34425
C          1.22888        -0.69809         0.09236
C          2.36616        -1.44562        -0.49611
C          3.68324        -0.72074        -0.83607
C          4.93849        -1.47968        -0.72187
C          6.20541        -0.78081        -0.64796
C          7.40019        -1.46179        -0.71805
C          8.73860        -0.76953        -0.94149
C          9.89796        -1.51099        -0.30523
C         11.10964        -0.76726        -0.04820
C         -9.87425        -2.88502        -0.13116
C         -8.67613        -3.69406        -0.18938
C         -7.39493        -3.02167        -0.65763
C         -6.21585        -3.74675         0.02136
C         -4.89824        -3.01832        -0.16438
C         -3.62278        -3.73271         0.12566
C         -2.53186        -2.99332         0.90387
C         -1.17404        -3.68230         0.85159
C          0.05284        -2.91949         0.46738
C          1.16219        -3.66229        -0.20490
C          2.44223        -2.92747        -0.37141
C          3.62765        -3.59971        -0.55670
C          4.90358        -2.89724        -0.65896
C          6.11068        -3.64144        -0.58993
C          7.41680        -2.96317        -0.92050
C          8.61332        -3.62563        -0.26672
C          9.81618        -2.86278        -0.07277
C         -8.66004        -5.04549         0.11645
C         -7.47115        -5.88128         0.10724
C         -6.20086        -5.24345        -0.42426
C         -4.91374        -5.96788         0.00226
C         -3.62829        -5.22764         0.22611
C         -2.44192        -5.92699         0.77394
C         -1.18094        -5.19369         0.86394
C          0.05784        -5.95209         0.40620
C          1.11559        -5.15882        -0.30526
C          2.37824        -5.89458        -0.62775
C          3.65831        -5.08490        -0.68381
C          4.90377        -5.79709        -0.35950
C          6.11447        -5.04532        -0.33921
C          7.34519        -5.72838        -0.05469
C          8.55716        -4.95979         0.06293
C         -7.45097        -7.21524         0.44829
C         -6.21641        -7.99085         0.56765
C         -4.99246        -7.33742         0.53714
C         -3.73901        -8.01652         0.88474
C         -2.43668        -7.30978         0.76093
C         -1.21480        -8.05747         0.55055
C         -0.05764        -7.39106         0.17561
C          1.13160        -8.11923        -0.40828
C          2.42643        -7.33175        -0.29429
C          3.64200        -7.95187        -0.11183
C          4.88715        -7.18597        -0.12177
C          6.12503        -7.85345         0.14156
C          7.32408        -7.11220         0.17987
C         -6.20401        -9.44022         0.60172
C         -5.04637       -10.16861         0.57605
C         -3.74122        -9.55214         0.85735
C         -2.44495       -10.21594         0.59294
C         -1.25486        -9.52728         0.49106
C          0.02931       -10.20237         0.39827
C          1.20902        -9.52820         0.13758
C          2.50287       -10.12409         0.27038
C          3.67959        -9.38750         0.16118
C          4.96105       -10.00129         0.37911
C          6.12076        -9.27304         0.37476
O          3.27678         5.18657         2.20902
O          0.63863        -4.33870        -1.41201
O          7.61398        -3.18438        -2.38215
H          6.75504        -3.00641        -2.82389
O          6.04840         4.52976        -1.70599
O         -7.65279         7.59731         0.86832
H         -8.45768         7.11668         1.14924
O         -0.19350        -5.66838         1.82206
O         -3.85511         9.47353         1.96131
H         -3.21365         8.86310         2.38313
O         -6.27439        -5.36946        -1.84384
H         -5.38607        -5.14486        -2.20538
O         -3.85289         3.42283        -1.55076
O          2.75140        -1.09458        -1.88211
O         -2.76166        -1.42824        -1.01669
O         -3.91940        -5.86596        -1.08313
O          0.10647        10.81322        -1.10814
H          0.02545        10.18160        -1.85175
O         -4.01861        -3.33806        -1.23828
O         -1.24240         0.56681         2.49394
H         -1.83157         1.29773         2.80543
O         -5.24270        -1.46983         1.60268
O          0.90161        -8.24762        -1.85005
H          0.07418        -8.75880        -1.97541
O         -3.82344         0.91686        -1.56973
O          6.87455         1.12566         0.81901
O          2.98764        -5.55876        -1.90694
O         -6.43708        -3.75792         1.43686
H         -6.10783        -2.87699         1.80501
O         -3.43464         5.28004         1.68523
O         -7.29725        -3.17509        -2.09622
H         -8.00236        -2.63104        -2.50620
O         -3.03921         2.14422         1.71703
O         -5.83483         7.81714        -2.29282
H         -5.82768         6.85781        -2.54757
O          8.96506        -0.82702        -2.39049
H          8.74760        -1.75238        -2.67275
O         -5.84844         5.10536        -2.37284
H         -5.04746         4.55124        -2.54819
O         -2.96317        -3.02271         2.27316
H         -2.20109        -2.75952         2.83448
O          8.04846         2.93193        -2.23289
H          7.72325         3.77250        -2.63045
O         -9.58864         1.35338         1.41206
H        -10.35801         1.77601         1.84771
O          2.72849         1.50823        -1.45457
O          2.13797         2.95086         1.85779
O          6.46638         3.91372         1.59541
H          5.60469         3.64830         1.97908
O         -0.23611        -3.21787         1.88188
O         -3.77280        -8.79603         2.12400
O         -8.78968         0.03753        -1.91692
H         12.01623        -1.33409         0.21372
H         12.08239         1.12984         0.14594
H         10.78641         3.22809         0.49240
H          9.72698         5.38187         0.50359
H          8.41414         7.62752        -0.10777
H          7.16543         9.74179        -0.23206
H          4.99574        10.93944        -0.33626
H          2.56155        10.95235        -0.17708
H          0.13580        10.83376         0.94236
H         -2.36716        11.07615         0.03071
H         -4.94919        11.12626         0.05866
H         -6.84878         9.97128        -0.91680
H         -8.16700         7.71096        -1.16053
H         -9.48730         5.57073        -0.37530
H        -10.72220         3.45812        -0.33214
H        -12.02350         1.20155        -0.31931
H        -12.05733        -1.23360        -0.40656
H        -10.82063        -3.38380         0.13521
H         -9.60474        -5.52105         0.43103
H         -8.39282        -7.72376         0.71028
H         -7.16465        -9.96027         0.46777
H         -5.08498       -11.25151         0.38342
H         -2.44046       -11.31216         0.48209
H          0.06493       -11.27516         0.64626
H          2.56522       -11.18877         0.54611
H          4.99477       -11.08434         0.56892
H          7.08308        -9.77309         0.55852
H          8.26784        -7.63375         0.39926
H          9.45344        -5.45656         0.46576
H         10.69793        -3.39393         0.32163
