         429
 CSIRO Nanostructure Databank - Neutral Graphene Oxide Data Set
C          1.83376         1.35940        -0.82152
C          1.95071         2.53810        -1.58608
C          2.83507         1.02701         0.06775
C          3.01051         3.40648        -1.36794
C          2.07921         6.51698        -2.53304
C          1.97266         7.90582        -2.26163
C          2.95404         5.73118        -1.83123
C          2.76386         8.53531        -1.32417
C          1.64849        10.70683        -1.71289
C          1.56758        12.10802        -1.64496
C          2.70291         9.97793        -1.15174
C          2.50913        12.84516        -0.94105
C          1.33072        15.01259        -1.23388
C          1.33555        16.39913        -1.32757
C          2.49516        14.29079        -0.89741
C          2.53056        17.12519        -1.15518
C          2.56720        18.55023        -1.32542
C          3.95466         1.88296         0.25547
C          4.02101         3.16022        -0.39179
C          5.05493         1.43559         1.03157
C          5.12803         4.03758        -0.12546
C          3.78766         6.23887        -0.72076
C          3.69549         7.75271        -0.47911
C          5.09534         5.50951        -0.45756
C          4.83359         8.51188         0.18403
C          3.73262        10.66507        -0.41752
C          3.57054        12.11430        -0.23943
C          4.85743        10.00850         0.11183
C          4.84006        12.90953         0.16059
C          3.70676        15.00697        -0.61613
C          3.73000        16.42634        -0.81684
C          4.89885        14.33432        -0.22768
C          4.94943        17.14419        -0.69366
C          3.73726        19.24532        -1.20255
C          4.96997        18.56871        -0.90009
C          6.21050         2.18352         1.10747
C          6.24043         3.50852         0.56055
C          7.38119         1.60544         1.87846
C          7.49096         4.25259         0.66272
C          6.26087         6.34582        -0.01752
C          6.12867         7.78220         0.42353
C          7.49753         5.66395         0.42705
C          7.37555         8.55726         0.68719
C          6.03135        10.74481         0.52660
C          6.06210        12.13575         0.40167
C          7.19532         9.98669         1.20372
C          7.26498        12.95712         0.68654
C          6.12461        15.03819        -0.15502
C          6.15447        16.45275        -0.39006
C          7.33284        14.37190         0.23466
C          7.38157        17.16720        -0.28982
C          6.17731        19.26090        -0.82398
C          7.39750        18.58907        -0.53646
C          8.70435         2.23855         1.52621
C          8.67174         3.58034         1.01941
C          9.90123         1.58779         1.74513
C          9.95208         4.24450         0.79503
C          8.63748         6.44673         0.57981
C          8.57695         7.89656         0.72494
C          9.92997         5.76752         0.58774
C          9.85685         8.53167         1.26377
C          8.53978        10.75753         1.21728
C          8.55095        12.23884         1.00287
C          9.86724        10.05569         1.21243
C          9.82975        12.91973         0.78240
C          8.53029        15.08292         0.35592
C          8.58183        16.48520         0.04369
C          9.77353        14.39034         0.78000
C          9.82428        17.20706         0.01759
C          8.61277        19.29011        -0.50090
C          9.83705        18.62131        -0.26555
C         11.18008         2.25940         1.61155
C         11.17984         3.61642         1.25774
C         12.42892         1.59899         1.78437
C         12.41540         4.43154         1.48017
C         11.18016         6.50737         0.78779
C         11.13200         7.91967         0.73462
C         12.39823         5.82095         0.90141
C         12.29973         8.64282         0.51625
C         11.08809        10.78875         0.75615
C         11.05156        12.22492         0.66803
C         12.27042        10.09634         0.45471
C         12.28575        12.93112         0.39198
C         11.08847        15.13365         0.62495
C         11.05717        16.54348         0.19060
C         12.31793        14.35909         0.37915
C         12.27943        17.23476         0.06568
C         11.06416        19.32437        -0.29012
C         12.29009        18.65690        -0.12384
C         13.66500         2.25548         1.48662
C         13.67244         3.66158         1.21083
C         14.89855         1.56807         1.45367
C         14.84995         4.34813         0.88560
C         13.60677         6.52233         0.74668
C         13.56064         7.93460         0.42282
C         14.84458         5.78837         0.69795
C         14.72749         8.61997         0.11603
C         13.45115        10.80253         0.04174
C         13.46119        12.19502         0.04311
C         14.59193         9.98447        -0.55300
C         14.65028        12.95558        -0.52112
C         13.51193        15.07860         0.18893
C         13.51921        16.52325         0.17521
C         14.75204        14.38359        -0.03502
C         14.72735        17.23518         0.20238
C         13.54242        19.34392        -0.08514
C         14.72993        18.65446         0.11519
C         16.09756         2.23418         1.10253
C         16.07843         3.63021         0.77637
C         17.34986         1.57202         1.11680
C         17.27815         4.28746         0.36744
C         16.04064         6.45136         0.41626
C         16.04466         7.96212         0.45736
C         17.25224         5.72429         0.19233
C         17.21956         8.54490        -0.25189
C         15.91569        10.74876        -0.62598
C         15.95368        12.21102        -0.37873
C         17.19886         9.99673        -0.53984
C         17.15340        12.88429        -0.33863
C         15.95763        15.05211         0.01018
C         16.02042        16.49833         0.46020
C         17.19997        14.35115        -0.26869
C         17.19829        17.23940        -0.11169
C         16.02935        19.38497         0.37806
C         17.22894        18.61626        -0.13135
C         18.53881         2.17032         0.65534
C         18.47893         3.54873         0.16923
C         19.74613         1.41786         0.86665
C         19.63213         4.26925        -0.32495
C         18.43892         6.41622        -0.16725
C         18.38941         7.84639        -0.37048
C         19.64883         5.70109        -0.40748
C         19.59878         8.55516        -0.85743
C         18.44604        10.70573        -0.06786
C         18.42509        12.17874        -0.37270
C         19.68079        10.00867        -0.58793
C         19.60980        12.84049        -0.54949
C         18.37833        15.02740        -0.47237
C         18.39600        16.52220        -0.67029
C         19.65388        14.31074        -0.84909
C         19.68372        17.19523        -0.21551
C         18.44691        19.29334        -0.43941
C         19.69969        18.63417        -0.33611
C         20.91409         1.60577         0.09169
C         20.78682         3.61135        -0.78269
C         22.25550         1.38505         0.30402
C         22.08106         4.20541        -0.78830
C         20.87254         6.34730        -0.75267
C         20.86452         7.78911        -1.08927
C         22.09739         5.64422        -0.77414
C         22.20704         8.50085        -1.30410
C         20.86324        10.68151        -0.67114
C         20.86965        12.12459        -0.47894
C         22.15763         9.99970        -0.95453
C         22.03008        12.80682        -0.16382
C         20.87004        14.97690        -0.24373
C         20.82558        16.38800         0.01587
C         22.02769        14.24041         0.02624
C         22.01427        16.94823         0.55785
C         20.90907        19.40942        -0.48167
C         22.11103        19.02558         0.12725
C         23.26097         1.89850        -0.72767
C         23.29298         3.44201        -0.71638
C         24.59805         1.26367        -0.47098
C         24.51679         4.14221        -0.59177
C         23.36531         6.34556        -0.74812
C         23.38878         7.77529        -0.68768
C         24.54849         5.56690        -0.65270
C         24.55229         8.48836        -0.28647
C         23.37121        10.66347        -0.36314
C         23.21023        12.01427         0.24770
C         24.57917         9.87484        -0.02966
C         24.45117        12.70669         0.70959
C         23.27150        14.89406         0.38396
C         23.27659        16.32553         0.50689
C         24.45664        14.18446         0.63487
C         24.48849        17.08112         0.61773
C         23.46287        19.31290        -0.13413
C         24.56006        18.51474         0.33775
C         25.75902         1.94751        -0.31305
C         25.77007         3.41234        -0.34380
C         27.02839         1.22853        -0.21758
C         26.95022         4.07270        -0.12831
C         25.84157         6.29027        -0.67237
C         25.84003         7.76345        -0.33101
C         27.13200         5.49116        -0.59629
C         27.04751         8.39712         0.24550
C         25.74919        10.56226         0.48151
C         25.71692        11.93327         0.78748
C         27.00226         9.80426         0.61413
C         26.87114        12.67342         1.34993
C         25.66145        14.89524         0.88498
C         25.69076        16.34015         0.82317
C         26.81921        14.17516         1.30662
C         26.93569        17.02680         0.95759
C         25.83204        19.13197         0.35184
C         27.01444        18.44682         0.71346
C         28.20607         1.86779        -0.01662
C         28.18552         3.32731         0.21468
C         29.50724         1.14554         0.26287
C         29.48903         4.06987         0.28270
C         28.28131         6.23103         0.06274
C         28.20967         7.63785         0.36242
C         29.47809         5.54643         0.18986
C         29.45870         8.25916         0.83351
C         28.17564        10.46766         0.94657
C         28.21340        11.88580         1.36228
C         29.46215         9.74995         1.04936
C         29.52233        12.55948         1.15732
C         27.88923        14.96321         1.74709
C         28.08792        16.32087         1.37085
C         29.69989        13.93058         1.52513
C         29.40084        16.93590         1.36924
C         28.25463        19.09612         0.86449
C         29.45266        18.39295         1.19587
C         30.76038         1.94306        -0.06118
C         30.75752         3.35337         0.05045
C         31.95792         1.27806        -0.32675
C         31.97340         4.09332        -0.02493
C         30.74365         6.24032         0.30283
C         30.73565         7.59992         0.53752
C         31.98577         5.51549         0.14505
C         32.00628         8.36943         0.78381
C         30.70520        10.47317         0.66878
C         30.61309        11.90935         0.60055
C         31.87254         9.82011         0.38131
C         31.74135        12.69031         0.05846
C         30.63658        14.78832         0.98812
C         30.60534        16.21464         1.22319
C         31.68477        14.19377         0.13254
C         31.87402        16.92012         1.11129
C         30.66193        19.05993         1.33312
C         31.91543        18.30771         1.71166
C         33.19551         1.98052        -0.42372
C         33.20251         3.39879        -0.22007
C         34.40767         1.31201        -0.71041
C         34.44354         4.11274        -0.17738
C         33.21930         6.22981         0.15303
C         33.22695         7.67967         0.24044
C         34.43454         5.52752         0.02155
C         34.37659         8.41807        -0.01510
C         33.00868        10.51565        -0.34299
C         33.04739        12.01325        -0.13252
C         34.35016         9.86151        -0.13274
C         34.21999        12.72282        -0.14296
C         32.93874        15.00478        -0.16569
C         32.99177        16.32582         0.57565
C         34.23240        14.20865         0.17316
C         34.26425        17.02452         0.47973
C         33.15684        19.06114         1.34471
C         34.28280        18.45227         0.82707
C         35.63894         2.01335        -0.74467
C         35.65398         3.39588        -0.38985
C         36.85831         1.37380        -1.12471
C         36.94062         4.09710        -0.39042
C         35.70150         6.28497         0.35418
C         35.66212         7.74084        -0.05712
C         36.97340         5.56843        -0.11422
C         36.81706         8.45446        -0.16481
C         35.51227        10.60641        -0.27633
C         35.50720        12.04707        -0.24638
C         36.79723         9.89450        -0.61568
C         36.72684        12.77224        -0.19873
C         35.43308        14.94443        -0.44599
C         35.40128        16.39536         0.01735
C         36.74091        14.21468        -0.15606
C         36.64298        17.16033        -0.16653
C         35.49197        19.19345         0.65935
C         36.68385        18.57751         0.25368
C         38.07436         2.08045        -1.28163
C         38.12015         3.47122        -1.00368
C         39.29384         1.42616        -1.67477
C         39.32870         4.21561        -1.11828
C         38.03323         6.36473        -0.84966
C         38.11774         7.74501        -0.22606
C         39.35127         5.63733        -0.95317
C         39.35838         8.51514        -0.42812
C         38.05360        10.66747        -0.29264
C         38.00191        12.07592        -0.20393
C         39.29448        10.00093        -0.37781
C         39.23186        12.80635        -0.13068
C         37.93947        14.91410        -0.10396
C         37.95817        16.39216        -0.23872
C         39.21101        14.23321        -0.03089
C         39.19539        17.12561         0.07417
C         37.91776        19.24369         0.28707
C         39.15864        18.54437         0.21632
C         40.47334         2.12256        -1.74440
C         40.52776         3.53115        -1.48406
C         41.72142         4.28092        -1.60705
C         40.52691         6.36925        -1.15144
C         40.41145         7.88736        -1.34116
C         41.71985         5.65841        -1.44291
C         41.69417         8.67955        -1.21228
C         40.50869        10.70253        -0.42850
C         40.48583        12.12321        -0.24058
C         41.71596         9.96114        -0.77598
C         41.68151        12.88567        -0.17290
C         40.42412        14.96348         0.05620
C         40.41474        16.42198         0.19967
C         41.64881        14.25489        -0.00540
C         41.59643        17.15530         0.43551
C         40.37464        19.24508         0.42892
C         41.57142        18.55103         0.53409
O         21.92185        18.14919         1.23658
O          3.13127         4.44701        -2.30107
O          3.78586        12.59364         1.11941
O         29.48563         8.84438         2.21220
O         28.87677        14.39533         2.56013
O         28.77970         3.65150         1.54292
O         19.96837         8.12593        -2.22160
O          7.72810        12.84934         2.08397
O          9.29707        10.56327         2.46629
O         31.22343        13.51292        -1.08329
O         20.62044         2.27558        -1.13809
O          5.14662         7.96755         1.49975
O         39.84465         8.03526        -2.64703
O         39.08395         7.87919         0.87063
O         37.28943        16.88739        -1.46475
O         23.06541        10.76554        -1.80387
O         37.43562         4.68498         0.92887
O         10.07950         4.84309        -0.55121
O         23.45464        12.13871         1.68257
O         16.69772        10.39281        -1.85168
O         27.44924        12.12791         2.57942
O         25.99603         7.28690        -1.74032
O          3.04967         6.77463         0.40983
O         10.46782        14.96671         1.94825
O          6.05775         6.03156        -1.45197
O         16.17025        19.50483         1.80906
H         16.24988        18.58866         2.16584
O         36.79177         9.82498        -2.09209
H         37.60400         9.34503        -2.37516
O         37.59511         6.57761        -2.21759
H         38.35299         7.09289        -2.64674
O         14.39258        13.03153        -1.96473
H         15.16309        13.47119        -2.38232
O         18.41305        10.53972         1.39358
H         19.16961        11.03528         1.77456
O         19.82162        14.44032        -2.31620
H         19.26454        13.75237        -2.73981
O         32.89647        15.36712        -1.55200
H         32.44562        14.63347        -2.03095
O         12.43297         4.66872         2.95240
H         13.22220         5.21939         3.14782
O         32.19366         8.38232         2.24420
H         31.30612         8.56700         2.64279
O         34.35943        14.29210         1.61796
H         35.12491        13.74389         1.89236
O         16.21888        16.50616         1.93046
H         15.45050        16.04602         2.33214
O         35.33103        14.92303        -1.88752
H         36.00864        15.55589        -2.22449
O         22.90798         1.45343        -2.05920
H         21.96163         1.68805        -2.20785
O          9.87246         8.13038         2.66386
H          9.38040         8.83194         3.15723
O          6.79821         9.85804         2.58693
H          6.82653        10.75587         2.98439
O         22.47763         8.40413        -2.72382
H         21.62178         8.54676        -3.18861
O          7.42899         0.18356         1.73720
H          7.58509        -0.02579         0.79374
O         18.34773        16.71961        -2.13009
H         19.02175        16.10250        -2.51374
O         16.27339         8.32436         1.89271
H         16.90857         9.07867         1.91910
O         27.58961         5.31231        -1.98058
H         27.26972         6.10155        -2.48017
O         29.53707         0.88288         1.68221
H         29.37987         1.74847         2.12745
O         35.72151         6.31179         1.81051
H         36.28123         5.55396         2.10414
O         32.69543        10.29321        -1.76699
H         33.46764        10.60061        -2.28967
O         31.91733        18.17343         3.17967
H         31.14259        17.62195         3.42126
O         14.18173         9.69261        -1.92048
H         15.00299         9.68759        -2.46651
H          0.97828         0.68875        -0.97787
H          1.21954         2.76788        -2.37153
H          2.80162         0.07523         0.61586
H          1.50274         6.07820        -3.35667
H          1.28295         8.48599        -2.88705
H          0.85135        10.18399        -2.25554
H          0.74387        12.61237        -2.16812
H          0.39119        14.47103        -1.40998
H          0.40772        16.93572        -1.57208
H          1.63113        19.07443        -1.56712
H          5.01462         0.44581         1.50877
H          3.75634        20.33575        -1.34310
H          7.19630         1.80515         2.97298
H          6.19539        20.34671        -1.00018
H          9.88429         0.54512         2.09574
H          8.61848        20.37339        -0.69225
H         12.44249         0.52883         2.03856
H         11.05451        20.41285        -0.44898
H         14.93118         0.49549         1.69627
H         13.55269        20.44082        -0.17028
H         17.38975         0.53269         1.47651
H         16.00246        20.41908        -0.04546
H         19.71835         0.61461         1.61836
H         18.43371        20.38994        -0.53203
H         22.61293         0.95551         1.25005
H         20.86888        20.31448        -1.10588
H         24.62173         0.16404        -0.51309
H         23.71074        20.20284        -0.73234
H         27.00117         0.13286        -0.32205
H         25.89640        20.20573         0.12017
H         29.53157         0.15668        -0.25962
H         28.31053        20.18509         0.71467
H         31.95897         0.18293        -0.43285
H         30.70066        20.15303         1.21146
H         34.39406         0.23378        -0.92644
H         33.19542        20.13234         1.59748
H         36.84013         0.29415        -1.33728
H         35.50751        20.25523         0.94858
H         39.26948         0.34892        -1.89328
H         37.93608        20.31757         0.52697
H         41.40141         1.60358        -2.02575
H         42.65522         3.76280        -1.87041
H         42.66180         6.20738        -1.58299
H         42.63768         8.22599        -1.55263
H         42.67749        10.49587        -0.76168
H         42.65534        12.38275        -0.23800
H         42.60105        14.79818         0.04977
H         42.56026        16.64043         0.53849
H         40.35389        20.33942         0.52915
H         42.50896        19.09724         0.70744
