         594
 CSIRO Nanostructure Databank - Neutral Graphene Oxide Data Set
C         23.26129        69.79006         2.09020
C         23.29762        71.17626         2.38445
C         22.10774        71.94306         2.52586
C         23.39913        73.94450         3.00238
C         22.17238        73.30233         2.83021
C         25.52222        65.50942         1.06508
C         25.58125        66.88764         1.47154
C         24.41718        67.62724         1.69269
C         25.69818        69.69188         2.15420
C         24.44690        69.03615         1.98595
C         25.76310        71.07862         2.41605
C         24.55902        71.82864         2.54769
C         25.87490        73.85110         3.02814
C         24.61778        73.22597         2.86261
C         27.89945        61.27223         0.12408
C         27.83230        62.66841         0.20275
C         26.65492        63.38002         0.51243
C         28.01990        65.40140         1.05800
C         26.66919        64.76903         0.81236
C         28.03674        66.89917         1.19076
C         26.86832        67.53886         1.57913
C         28.20376        69.64031         1.93278
C         26.95143        68.87478         2.25100
C         28.24256        71.02313         2.25771
C         27.03379        71.73771         2.53954
C         28.34735        73.77489         2.95752
C         27.08647        73.13503         2.85037
C         30.40602        57.05523         0.04750
C         30.36326        58.45646         0.00858
C         29.14898        59.18053        -0.08140
C         30.39613        61.31904        -0.07746
C         29.13486        60.58175        -0.02204
C         30.34555        62.74897        -0.31226
C         29.04284        63.43311        -0.19177
C         30.35420        65.62997         0.05781
C         29.07828        64.90377         0.11315
C         30.44951        66.94182         0.52263
C         29.29151        67.58409         1.09818
C         30.61308        69.65974         1.44197
C         29.35990        68.96841         1.48174
C         30.68046        71.00876         1.90903
C         29.49086        71.70398         2.27534
C         30.81137        73.71827         2.77756
C         29.55012        73.08510         2.67938
C         32.91062        52.76363        -0.24270
C         32.85209        54.15449         0.20569
C         31.64188        54.94872         0.02519
C         32.80590        57.05842         0.73135
C         31.59665        56.30043         0.30738
C         32.65827        58.50518         0.71301
C         31.58722        59.21684         0.21944
C         32.90256        61.41339        -0.08726
C         31.61384        60.66102         0.06960
C         32.81431        62.84950        -0.53368
C         31.47423        63.47760        -0.59459
C         32.78050        65.71323        -0.75571
C         31.44551        64.96097        -0.66173
C         32.83070        67.04906        -0.15251
C         31.71381        67.66390         0.40225
C         33.02691        69.67567         1.03283
C         31.79337        69.01162         0.95370
C         33.12563        70.98627         1.61385
C         31.93583        71.67159         1.99816
C         33.26959        73.66323         2.55618
C         32.00731        73.03244         2.45775
C         35.28213        48.46765        -0.59150
C         35.29428        49.88234        -0.52796
C         34.09761        50.62577        -0.44863
C         35.38578        52.70883        -0.17978
C         34.11007        52.03255        -0.26423
C         35.44073        54.15761         0.08952
C         34.18237        54.90852         0.39676
C         35.40817        57.18690        -0.04798
C         34.23722        56.42358         0.52897
C         35.49333        58.56781        -0.21554
C         34.49843        59.52933         0.24443
C         35.21684        61.30545        -1.24164
C         34.17058        60.68743        -0.41044
C         35.16247        62.78227        -1.60360
C         33.85007        63.54515        -1.42854
C         35.28678        65.60885        -0.98910
C         34.04512        64.97828        -0.98193
C         35.37761        67.00222        -0.59885
C         34.12185        67.74032        -0.28842
C         35.56302        69.58725         0.70595
C         34.20553        69.10207         0.35737
C         35.61336        70.92639         1.37466
C         34.37206        71.64511         1.71606
C         35.72988        73.63114         2.33878
C         34.46025        72.99480         2.18966
C         37.67660        44.16150        -0.93974
C         37.66731        45.57340        -0.90127
C         36.47654        46.30913        -0.74142
C         37.73052        48.43192        -0.80686
C         36.47562        47.72729        -0.70938
C         37.75446        49.85665        -0.75196
C         36.55201        50.58446        -0.58662
C         37.80388        52.73862        -0.72743
C         36.56771        52.01796        -0.47097
C         37.81064        54.16005        -0.84368
C         36.64701        54.93159        -0.34533
C         37.77803        57.04165        -1.05475
C         36.44028        56.35635        -0.83322
C         37.75682        58.46882        -1.26482
C         36.58359        59.21315        -0.95772
C         37.55627        61.24855        -1.97267
C         36.51601        60.59647        -1.26520
C         37.59001        62.72654        -2.20780
C         36.43640        63.53753        -1.74130
C         37.71972        65.69701        -1.61536
C         36.50349        64.90474        -1.43583
C         37.75780        67.04512        -1.22417
C         36.59879        67.69024        -0.63471
C         37.86255        69.80315        -0.17022
C         36.71454        69.04993        -0.08375
C         37.91172        71.23210         0.27207
C         36.78243        71.79024         1.06698
C         38.19887        73.50618         2.13107
C         36.92862        73.03021         1.88182
C         40.13061        39.92776        -0.25945
C         40.15247        41.42094        -0.25146
C         38.89457        42.07132        -0.72313
C         40.12714        44.08092        -1.53125
C         38.88144        43.41335        -1.04317
C         40.08986        45.56724        -1.48011
C         38.92416        46.28081        -1.02727
C         40.21454        48.41345        -0.97474
C         38.93542        47.68888        -0.95258
C         40.19587        49.87024        -1.07634
C         39.00640        50.56832        -0.91883
C         40.21119        52.72969        -1.17530
C         38.99220        52.01730        -0.96972
C         40.20969        54.14502        -1.32236
C         38.96884        54.86150        -1.21610
C         40.19881        57.02331        -1.60031
C         38.92444        56.30939        -1.32451
C         40.17206        58.49802        -1.94990
C         38.82299        59.12050        -1.93211
C         40.48651        61.52031        -2.52346
C         38.59953        60.41938        -2.41359
C         40.27470        62.85088        -2.12427
C         38.97210        63.50471        -2.29409
C         40.29833        65.72349        -1.95647
C         38.95546        65.00978        -2.10128
C         40.29976        67.20678        -1.72061
C         38.97036        67.88980        -1.45085
C         40.35868        70.02504        -0.86219
C         39.01340        69.31101        -0.94766
C         40.47784        71.24091        -0.00758
C         39.22267        72.03055         0.33822
C         40.66649        73.47845         1.77219
C         39.39258        72.68591         1.72344
C         42.30324        35.98000         1.66607
C         42.34721        37.32810         1.27351
C         41.27653        37.89659         0.54427
C         42.52036        40.01428         0.26187
C         41.28096        39.26842         0.17501
C         42.59534        41.31021        -0.36331
C         41.45255        41.98290        -0.77762
C         42.83169        43.97401        -1.56106
C         41.48729        43.29231        -1.48411
C         43.02320        45.19923        -2.13825
C         41.15530        46.31577        -1.95257
C         42.75856        48.34527        -1.85214
C         41.46579        47.65457        -1.49136
C         42.75899        49.85289        -1.62462
C         41.45270        50.57719        -1.36869
C         42.66708        52.72088        -1.22983
C         41.45518        52.04307        -1.17139
C         42.67829        54.11832        -1.52210
C         41.44302        54.79856        -1.58405
C         42.69284        56.92858        -2.26045
C         41.39904        56.21256        -1.98941
C         42.71675        58.43930        -2.30496
C         41.44447        59.22579        -2.38512
C         42.84069        61.36287        -1.90526
C         41.51654        60.68788        -2.08659
C         42.71242        62.74946        -1.29265
C         41.42544        63.52782        -1.48091
C         42.74833        65.65974        -1.43039
C         41.52408        64.98860        -1.58046
C         42.79341        67.09526        -1.42986
C         41.59432        67.87527        -1.40710
C         42.87038        69.99881        -1.08350
C         41.59819        69.24958        -1.12768
C         42.90780        71.35265        -0.42466
C         41.67884        71.84162         0.23832
C         43.03362        73.71028         1.25977
C         41.78504        73.04963         1.07770
C         44.50722        33.51915         3.52714
C         43.41863        34.00408         2.84020
C         44.48913        36.34463         2.98055
C         43.24219        35.43598         2.63091
C         44.61910        37.61529         2.25798
C         43.52784        38.14025         1.53311
C         44.89681        40.10810         0.97735
C         43.65034        39.42038         0.89853
C         45.13060        41.28579         0.12134
C         43.94403        41.84944        -0.63406
C         45.41080        43.94726        -1.10799
C         44.07257        43.22089        -1.21580
C         45.47044        45.40856        -1.46620
C         44.22741        46.06399        -1.99338
C         45.27181        48.31736        -1.39868
C         44.07673        47.58176        -1.90082
C         45.14336        49.69825        -0.98819
C         44.01788        50.51546        -1.19993
C         45.11942        52.84692        -0.83315
C         43.87591        51.98412        -0.69296
C         45.17399        54.13974        -1.40034
C         43.93194        54.83304        -1.71759
C         45.19407        56.94032        -1.96463
C         43.95674        56.20282        -1.98724
C         45.19831        58.31892        -1.75010
C         43.91482        59.05563        -1.63602
C         45.19227        61.21658        -0.93062
C         43.90624        60.49881        -1.25919
C         45.22025        62.72599        -0.96832
C         43.98008        63.50772        -1.22224
C         45.28187        65.57130        -1.21231
C         43.99549        64.88404        -1.27922
C         45.32670        66.95617        -1.23305
C         44.13257        67.76540        -1.68784
C         45.38383        69.84394        -0.68575
C         44.17465        69.25717        -1.30028
C         45.45353        71.16070        -0.19002
C         44.22542        71.98084        -0.06999
C         45.48510        73.75932         1.13037
C         44.27137        73.17520         0.82021
C         45.61958        34.32961         3.87058
C         46.89972        36.41995         3.53424
C         45.69763        35.67191         3.47969
C         46.98594        37.72439         3.01584
C         45.85296        38.30924         2.33364
C         47.20766        40.33418         1.81077
C         45.98034        39.57655         1.69862
C         47.31551        41.61272         1.25618
C         46.31266        42.14447         0.38382
C         47.62197        44.23307         0.07156
C         46.44768        43.41907        -0.18492
C         47.73855        45.57906        -0.42726
C         46.59087        46.23780        -0.98114
C         47.75413        48.42276        -0.97324
C         46.49823        47.63744        -1.12367
C         47.59873        49.79997        -0.47037
C         46.31184        50.21183        -0.28349
C         47.56456        52.89413        -0.43815
C         46.28064        52.37204        -0.23145
C         47.62342        54.17465        -1.03460
C         46.43507        54.80094        -1.47171
C         47.76362        56.96294        -2.11885
C         46.47415        56.18591        -2.01616
C         47.62957        58.45125        -2.00752
C         46.42098        59.05352        -1.64959
C         47.79060        61.18900        -1.10488
C         46.47483        60.43285        -1.10060
C         47.78671        62.68498        -0.97032
C         46.51755        63.42949        -1.06360
C         47.78955        65.51610        -1.29307
C         46.52491        64.81412        -1.13225
C         47.79310        66.94768        -1.16541
C         46.57792        67.62408        -1.05445
C         47.92490        69.73905        -0.48176
C         46.55730        69.00366        -0.56431
C         47.90294        71.19027        -0.29363
C         46.68603        71.77521         0.14236
C         47.97480        73.89207         0.55973
C         46.79167        73.03974         0.95435
C         48.19899        38.46455         3.08097
C         49.56502        40.44649         2.57854
C         48.32414        39.74158         2.52630
C         49.68608        41.75140         2.10668
C         48.43533        42.50587         1.72189
C         49.91271        44.38478         0.95432
C         48.67902        43.70841         0.85022
C         50.06882        45.66703         0.37382
C         48.96914        46.28310        -0.24605
C         50.16795        48.52143        -0.07367
C         49.04570        47.71062        -0.62907
C         50.05577        49.86824         0.12317
C         48.75032        50.57863         0.05600
C         50.07126        52.83623        -0.05101
C         48.75705        52.13645         0.02361
C         50.11902        54.23575        -0.45316
C         48.88588        54.95004        -0.87812
C         50.37877        56.91891        -1.55697
C         49.00090        56.34914        -1.46132
C         50.64532        58.19107        -2.12453
C         48.76348        59.27673        -2.23284
C         50.23604        61.25528        -1.88485
C         48.96921        60.57260        -1.76913
C         50.29401        62.65537        -1.79732
C         49.07853        63.40873        -1.36385
C         50.16182        65.59050        -2.05022
C         48.97418        64.84666        -1.58367
C         50.22363        67.01878        -1.72002
C         49.05631        67.66395        -1.23450
C         50.20561        69.84992        -1.47954
C         49.06649        69.05749        -1.04030
C         50.22833        71.35147        -1.11349
C         49.08134        71.93514        -0.41794
C         50.35215        74.03075        -0.17953
C         49.12359        73.32256         0.00389
C         50.90445        42.45604         2.16247
C         52.21829        44.49773         1.87835
C         51.03038        43.76767         1.66670
C         52.41291        45.79374         1.36991
C         51.46037        46.26737         0.27205
C         52.62562        48.54536         0.66589
C         51.45675        47.79154         0.13673
C         52.47405        50.00251         0.94113
C         51.19130        50.69223         0.62484
C         52.46144        52.88245         0.57170
C         51.20638        52.14824         0.32901
C         52.48804        54.34453         0.24091
C         51.29804        54.96485        -0.35756
C         52.64629        57.07351        -0.63438
C         51.43317        56.31974        -0.84754
C         52.69951        58.46759        -0.93980
C         51.63628        59.05585        -1.68430
C         52.64256        61.33772        -1.36249
C         51.58632        60.52543        -2.10883
C         52.76568        62.76174        -1.78033
C         51.51467        63.39197        -2.01861
C         52.75981        65.60407        -2.47035
C         51.46458        64.83129        -2.32767
C         52.64304        67.08531        -2.32763
C         51.45279        67.73466        -1.87126
C         52.67639        69.89712        -1.68478
C         51.47486        69.15324        -1.69484
C         52.70636        71.30667        -1.31721
C         51.53766        72.00165        -1.00091
C         52.77040        74.08188        -0.71136
C         51.54600        73.39167        -0.60573
C         53.54543        46.53181         1.75536
C         54.81677        48.67259         1.85831
C         53.73385        47.89765         1.42329
C         54.93826        50.07805         1.57725
C         53.78966        50.70584         0.87961
C         54.96365        52.93247         1.05693
C         53.77813        52.17006         0.64444
C         55.04113        54.31530         0.58827
C         53.81554        54.99476         0.02996
C         54.97661        57.18465         0.19707
C         53.81233        56.45814        -0.10288
C         54.94687        58.60738         0.03005
C         53.84740        59.22183        -0.54839
C         55.05625        61.47071        -0.55511
C         53.79589        60.69968        -0.67344
C         55.15936        62.78993        -1.09149
C         54.00487        63.43186        -1.71471
C         55.40655        65.52174        -1.99503
C         54.10653        64.82288        -2.23742
C         55.65159        66.80905        -2.39722
C         53.73974        67.93242        -2.55788
C         55.19119        69.80262        -1.61071
C         53.87274        69.23812        -2.05591
C         55.20215        71.28754        -1.42621
C         53.97879        71.98241        -1.28194
C         55.17825        74.11860        -1.17690
C         53.96860        73.41025        -1.06172
C         56.01392        50.88344         1.93624
C         57.20475        53.12632         1.98005
C         56.06186        52.30926         1.65578
C         57.27254        54.50335         1.69828
C         56.16241        55.15336         1.01441
C         57.37312        57.28314         0.96638
C         56.13287        56.51037         0.76336
C         57.34043        58.75921         0.76307
C         56.00914        59.46875         0.66390
C         57.39124        61.51889         0.17890
C         56.15547        60.84489         0.04674
C         57.53855        62.80848        -0.38610
C         56.44350        63.41952        -1.01833
C         57.96357        65.46133        -1.63325
C         56.61772        64.74095        -1.65802
C         57.92253        66.95315        -1.61410
C         56.75845        67.61409        -1.92112
C         57.76891        69.83107        -1.03285
C         56.50885        69.04590        -1.49255
C         57.70177        71.33342        -1.30954
C         56.43282        71.99693        -1.36524
C         57.61060        74.17208        -1.35679
C         56.40185        73.44012        -1.33778
C         58.38342        55.31217         2.08907
C         59.48621        57.52421         2.24988
C         58.46180        56.68258         1.77488
C         59.51813        58.93191         2.01118
C         58.46049        59.57272         1.27009
C         59.64492        61.71114         1.26532
C         58.50034        60.90973         0.90628
C         59.83685        62.97171         0.69700
C         58.97411        63.30430        -0.52267
C         60.32660        65.57562        -0.52752
C         59.14966        64.76244        -0.99485
C         60.39125        67.05403        -0.87951
C         59.17094        67.72746        -1.42319
C         60.25159        69.96454        -0.93129
C         59.08090        69.24071        -1.57851
C         60.19946        71.41930        -1.15513
C         58.88092        72.07883        -1.29163
C         60.01794        74.29353        -1.01910
C         58.84985        73.52187        -1.29699
C         60.53070        59.75777         2.53000
C         61.62675        61.95416         2.67402
C         60.60233        61.13528         2.19026
C         61.82566        63.26524         2.16419
C         60.97889        63.76698         1.07771
C         62.43154        65.79200         0.87822
C         61.21716        65.03774         0.53595
C         62.55268        67.26082         0.54092
C         61.51806        67.89801        -0.34822
C         62.41094        70.17173         0.26708
C         61.35466        69.37802        -0.35039
C         62.41059        71.57741         0.13224
C         61.38357        72.24862        -0.68810
C         62.23258        74.46471         0.02748
C         61.20406        73.71199        -0.55405
C         62.80657        64.07063         2.73820
C         64.07949        66.24753         2.82219
C         63.25886        65.28616         2.09979
C         64.20286        67.59109         2.42743
C         63.37842        68.15111         1.38825
C         64.31138        70.37705         1.85292
C         63.37780        69.54829         1.14778
C         64.33082        71.78551         1.65694
C         63.35199        72.39223         0.81605
C         64.31018        74.60582         1.32052
C         63.31782        73.83330         0.69610
C         65.12860        68.42716         3.10204
C         66.20141        70.60689         3.43347
C         65.23311        69.79585         2.79466
C         66.26607        71.99510         3.19355
C         65.30306        72.59486         2.32047
C         66.31096        74.79175         2.76526
C         65.31670        74.01038         2.12226
C         67.24307        72.81796         3.82009
C         67.26048        74.19195         3.59507
O         54.73601        54.34441        -0.88945
O         34.01540        68.98365        -1.08701
O         34.92733        61.74500        -2.61557
O         43.34319        36.25343         3.85129
O         40.67358        43.40404        -2.69582
O         39.51311        60.91518        -3.33102
O         54.80851        67.44854        -3.29662
O         63.66865        65.07654         0.68443
O         39.53983        67.85190        -2.78557
O         49.73813        58.69880        -3.06357
O         43.57421        70.04865        -2.37819
O         43.53268        59.50739        -0.27433
O         41.99470        45.76185        -2.91070
O         49.90059        70.88634        -2.47516
O         52.63707        61.23194         0.09820
O         53.54648        65.06475        -3.56389
O         33.51436        54.31281         1.52586
O         52.32167        53.89388         1.63058
O         38.18880        63.13979        -3.46238
O         52.53540        48.24205        -0.76919
O         40.47871        58.02156        -0.57201
O         28.69208        64.43385        -1.21348
O         50.55215        65.20325        -3.41906
O         33.70118        59.18466         1.34050
O         62.80756        67.47779        -0.89571
O         48.54930        51.38573         1.25556
O         45.06991        43.17150        -2.28962
O         51.59104        50.36253         2.03302
O         47.30796        69.09500         0.68794
O         54.04708        51.23620        -0.46434
O         46.11163        51.26830         0.61545
O         47.22940        56.31506        -3.29933
O         31.84709        65.62295        -1.89756
O         35.83862        69.68741         2.14498
O         48.72255        63.12108         0.05579
O         39.69441        65.49176        -3.27601
O         41.88829        56.38915        -3.35962
O         44.85709        40.91943        -1.28254
O         36.85754        72.03008        -0.38332
O         41.21521        47.83884        -0.05405
O         61.25774        71.83752        -2.08742
O         43.53646        72.33586        -1.31745
O         48.66862        56.14687        -0.04008
O         57.53231        64.76382        -2.83113
O         43.40731        48.08294        -3.11689
O         45.28988        45.66112        -2.91210
O         57.76215        57.90396        -0.33666
O         60.23021        67.23544        -2.31930
O         48.73637        48.10638        -2.00996
O         45.11537        61.94909         0.31371
O         55.55942        69.05748        -0.35348
O         47.33479        60.48796         0.08869
O         36.45863        54.62784         1.06249
O         33.69498        56.71797         1.84001
O         60.37790        64.81235        -1.78927
O         41.99650        50.40273        -2.76180
O         39.44157        70.25194        -1.99072
O         41.81898        62.92658        -0.16519
O         33.17976        62.53630         0.84775
O         42.23515        58.92938        -3.60400
O         55.58901        59.67028         2.05163
H         54.71545        60.11754         2.04044
O         43.37106        61.60712        -3.25693
H         43.08549        60.85151        -3.82543
O         59.49336        62.45782        -1.58414
H         60.21122        62.96640        -2.03057
O         35.84637        56.17389        -2.16635
H         35.88792        57.03293        -2.63903
O         44.25243        67.71911        -3.14486
H         43.76598        68.50720        -3.48924
O         43.55329        51.85958         0.72712
H         44.37536        51.56667         1.18922
O         27.07362        68.53505         3.70655
H         27.11432        69.38686         4.19331
O         28.46549        64.91217         2.37102
H         27.88991        65.32031         3.05301
O         47.93742        43.08538         2.99418
H         47.83293        42.34246         3.62717
O         57.86999        69.67873         0.40378
H         56.94398        69.68418         0.74868
O         59.09794        69.52564        -2.98730
H         59.83089        69.00122        -3.38215
O         52.00423        45.71862        -0.95774
H         52.59081        46.41294        -1.34173
O         51.91766        60.59656        -3.51064
H         51.24993        60.06862        -4.00074
O         33.20306        63.57218        -2.72103
H         33.79271        64.02191        -3.36080
O         47.12001        72.56849         2.33800
H         47.75511        71.82446         2.25317
O         39.51583        71.56580         2.67048
H         39.60104        71.94031         3.57245
O         40.17668        41.80637         1.21444
H         39.47438        41.28334         1.65887
O         39.15132        73.10054        -0.61709
H         38.89726        72.71669        -1.48353
H         23.43136        75.01597         3.24633
H         25.91596        74.92375         3.26925
H         28.38858        74.83935         3.23134
H         30.86339        74.76880         3.09930
H         33.32506        74.70007         2.91867
H         35.77586        74.60628         2.84556
H         38.34502        74.42451         2.72030
H         40.74303        74.33752         2.45705
H         43.04935        74.61394         1.88863
H         45.49686        74.68516         1.72690
H         47.99798        74.94093         0.89213
H         50.39356        75.09719         0.08707
H         52.80862        75.15966        -0.49508
H         55.17865        75.21441        -1.08322
H         57.57124        75.27021        -1.30855
H         59.91349        75.38841        -0.97669
H         62.15902        75.56219         0.04666
H         64.28865        75.70013         1.20961
H         66.32473        75.87950         2.60697
H         22.28866        69.29273         1.95929
H         21.13270        71.45212         2.39622
H         21.24177        73.87710         2.93842
H         24.53367        65.04056         0.94411
H         23.43896        67.13696         1.57788
H         26.98452        60.67877         0.27301
H         25.70376        62.83020         0.58702
H         29.47664        56.49481        -0.12986
H         28.19687        58.63127        -0.12128
H         31.96654        52.25002        -0.47754
H         30.76354        54.46424        -0.42506
H         34.32039        47.93680        -0.53863
H         33.13211        50.10075        -0.48353
H         36.73795        43.61680        -0.75578
H         35.52059        45.77124        -0.65944
H         39.17436        39.39132        -0.34488
H         37.94835        41.59639        -0.41455
H         41.53080        35.32038         1.24207
H         40.36927        37.29872         0.37116
H         44.57486        32.43958         3.72457
H         42.68043        33.31308         2.40812
H         46.50288        33.85337         4.31966
H         47.79362        35.95986         3.98143
H         49.06686        38.01321         3.58489
H         50.44914        39.93233         2.98530
H         51.78501        41.96679         2.60665
H         52.99617        44.05782         2.52243
H         54.27704        46.04851         2.42253
H         55.62049        48.18074         2.42780
H         56.87843        50.42955         2.44429
H         58.06384        52.64782         2.47428
H         59.19411        54.85127         2.67413
H         60.29559        57.08235         2.85149
H         61.31629        59.32636         3.16823
H         62.34281        61.55861         3.40901
H         63.26538        63.77068         3.69192
H         64.60787        65.90723         3.72452
H         65.79116        67.98795         3.86154
H         66.90995        70.14292         4.13545
H         67.98595        72.35605         4.48579
H         68.02374        74.81357         4.08380
