         618
 CSIRO Nanostructure Databank - Neutral Graphene Oxide Data Set
C         23.50020        69.57452         2.82399
C         23.51261        70.95634         3.09998
C         22.50102        71.55600         3.88170
C         23.69717        73.66450         3.92395
C         22.58780        72.90279         4.26145
C         25.65026        65.48947         1.03454
C         25.43468        66.92982         0.91943
C         24.50540        67.59677         1.83687
C         25.40631        69.86617         1.19193
C         24.48224        68.96629         1.99894
C         25.65439        71.19487         1.87149
C         24.64994        71.75098         2.67712
C         25.91943        73.83879         2.86521
C         24.76236        73.10390         3.15650
C         27.91673        61.26508         0.42786
C         27.95987        62.68985         0.20711
C         26.90810        63.43671         0.69920
C         27.85826        65.62992        -0.06975
C         26.75772        64.85758         0.50885
C         27.79301        67.02115        -0.07563
C         26.58225        67.76265         0.32676
C         27.82192        69.92079         0.50056
C         26.68612        69.18800         0.73621
C         27.95879        71.30474         0.95290
C         26.85980        71.91057         1.63758
C         28.20584        73.95194         1.98485
C         26.99441        73.24912         2.16083
C         30.18227        56.80222         0.05211
C         29.81899        58.09104        -0.35381
C         28.75927        58.91381         0.09304
C         30.52926        61.45738        -0.80623
C         28.66151        60.29379        -0.24472
C         30.40739        62.77400        -0.46270
C         29.04373        63.42797        -0.60171
C         30.30860        65.60781        -0.29795
C         29.10235        64.92008        -0.31111
C         30.29269        67.06936        -0.50010
C         28.96090        67.81349        -0.46640
C         30.23695        70.06910        -0.35515
C         28.94860        69.30897        -0.25285
C         30.34437        71.42957         0.21841
C         29.18315        72.01211         0.82827
C         30.55552        74.02329         1.26678
C         29.30638        73.35080         1.35189
C         32.88315        52.76962        -0.33073
C         32.84220        54.15739        -0.34583
C         31.60004        54.84321        -0.17291
C         32.76780        57.01224        -0.02536
C         31.48848        56.22509        -0.15780
C         32.81978        58.51584        -0.07028
C         31.70249        59.31844        -0.60815
C         32.80127        61.31828         0.28485
C         31.69653        60.67237        -0.49865
C         32.80870        62.80937         0.09339
C         31.63005        63.49499        -0.11745
C         32.77621        65.66763         0.03025
C         31.60190        64.95177        -0.13058
C         32.77126        67.13980         0.14599
C         31.50194        67.86800        -0.14376
C         32.70008        70.00229        -0.47949
C         31.52321        69.33073        -0.42228
C         32.71325        71.50911        -0.64651
C         31.55274        72.10422         0.12419
C         32.95219        74.04586         0.69842
C         31.67255        73.41862         0.68082
C         35.30448        48.49938        -0.89862
C         35.24550        49.93232        -1.33603
C         34.08023        50.67105        -0.73212
C         35.26023        52.81522        -1.18561
C         34.06980        52.03485        -0.66313
C         35.29893        54.24464        -0.68853
C         34.08105        54.92649        -0.45841
C         35.30529        57.04090        -0.20384
C         34.07657        56.31924        -0.21530
C         35.32722        58.49323        -0.12976
C         34.12010        59.23435        -0.10694
C         35.34073        61.35776        -0.01453
C         34.12006        60.62762         0.01055
C         35.34989        62.78494         0.05182
C         34.08620        63.49916         0.33242
C         35.32833        65.70981        -0.05193
C         34.07168        65.00246         0.28746
C         35.30772        67.09709        -0.25323
C         34.08948        67.91450         0.14285
C         35.18168        69.95319        -1.01968
C         33.95041        69.21682        -0.64197
C         35.19574        71.44182        -0.90134
C         34.08573        72.16217        -0.45987
C         35.31509        74.23552         0.55767
C         34.12989        73.49451         0.18022
C         37.77893        44.37872         0.52395
C         37.68741        45.80632         0.22986
C         36.49720        46.45594        -0.26942
C         37.77634        48.50964        -0.86530
C         36.49866        47.82477        -0.63904
C         37.76858        49.94023        -1.11748
C         36.54937        50.66277        -1.12382
C         37.77977        52.74353        -0.83561
C         36.55872        52.05706        -1.01117
C         37.76768        54.15192        -0.40161
C         36.51317        54.92345        -0.50702
C         37.81707        57.01157        -0.16980
C         36.54350        56.32446        -0.27696
C         37.79561        58.46221         0.05561
C         36.54443        59.21256        -0.07927
C         37.79693        61.36624        -0.28677
C         36.56685        60.63082        -0.09114
C         37.76390        62.80954        -0.36281
C         36.54891        63.51483        -0.13400
C         37.75995        65.68145        -0.33639
C         36.54159        64.97150        -0.18032
C         37.74586        67.09954        -0.49618
C         36.50645        67.78076        -0.56674
C         37.78964        69.97784        -0.82336
C         36.49392        69.20886        -0.94912
C         37.71388        71.44997        -0.68985
C         36.51622        72.04896        -0.96671
C         37.85956        74.47516         0.36216
C         36.56251        74.09481        -0.03849
C         40.10071        40.27328         2.12500
C         39.78784        41.40298         1.30838
C         38.91429        42.45765         1.44871
C         40.24240        44.34645         0.23803
C         38.98000        43.71088         0.68887
C         40.25825        45.69285        -0.16070
C         39.05187        46.53026        -0.06606
C         40.22779        48.40706        -1.24922
C         38.97331        47.81539        -0.77230
C         40.23260        49.94257        -1.43310
C         38.98587        50.66215        -1.17426
C         40.27534        52.79576        -0.95994
C         39.00946        52.06416        -0.98361
C         40.31530        54.13576        -0.61918
C         39.09100        54.87894        -0.23871
C         40.28762        57.10223        -0.43463
C         39.05983        56.36402        -0.25904
C         40.30191        58.48975        -0.55516
C         39.10835        59.25755        -0.17929
C         40.16113        61.37046        -1.12382
C         38.99357        60.67647        -0.49199
C         40.21651        62.83960        -0.74665
C         38.99546        63.53374        -0.52583
C         40.24408        65.65105        -0.41802
C         39.01424        64.95682        -0.40814
C         40.26853        67.12675        -0.11625
C         38.98905        67.85511        -0.45329
C         40.28879        69.99354        -0.25012
C         39.00368        69.22668        -0.46614
C         40.17465        71.48871        -0.65644
C         38.91714        72.16192        -0.06061
C         40.25706        74.29662        -0.00310
C         39.00287        73.70352        -0.03677
C         42.79642        36.52838         3.69015
C         42.74178        37.75834         3.04777
C         41.52244        38.44761         2.82976
C         42.66482        40.45309         1.88138
C         41.38941        39.69062         2.16838
C         42.77429        41.69592         1.08804
C         41.64139        42.28732         0.50168
C         42.76357        44.37585         0.14531
C         41.52069        43.66936         0.29305
C         42.74171        45.67419        -0.37607
C         41.49013        46.35679        -0.56123
C         42.74791        48.45482        -1.07873
C         41.48531        47.69268        -0.98593
C         42.76004        49.93146        -1.27905
C         41.49044        50.69303        -1.35867
C         42.81167        52.75199        -1.19340
C         41.51326        52.05976        -1.20845
C         42.83549        54.15759        -0.88260
C         41.60793        54.82963        -0.47945
C         42.81044        57.09421        -0.83619
C         41.59358        56.39157        -0.42459
C         42.77443        58.51757        -1.04167
C         41.50623        59.23425        -0.87661
C         42.67147        61.39212        -1.28365
C         41.45846        60.61109        -0.97473
C         42.70188        62.79922        -0.78462
C         41.42595        63.54191        -0.73816
C         42.73247        65.66720        -0.66856
C         41.46279        64.95191        -0.54975
C         42.69071        67.12973        -0.73810
C         41.50805        67.81259        -0.64286
C         42.75423        69.98873        -0.61196
C         41.46994        69.28615        -0.97715
C         42.73491        71.49783        -0.73923
C         41.46970        72.20088        -0.34741
C         42.75326        74.31077        -0.23733
C         41.49976        73.58438        -0.19417
C         45.27974        33.80688         4.50224
C         44.06341        34.47820         4.33756
C         45.26905        36.45869         3.59844
C         44.04106        35.81630         3.87662
C         45.24971        37.92841         3.28137
C         44.02044        38.29802         2.44950
C         45.25885        40.39838         1.74705
C         43.99569        39.79895         2.22400
C         45.25374        41.70395         1.22566
C         44.00620        42.38754         0.96452
C         45.25595        44.34740         0.13626
C         44.01423        43.68870         0.38269
C         45.27751        45.66406        -0.39459
C         44.01050        46.27049        -0.82618
C         45.29286        48.46981        -1.20097
C         44.02608        47.71260        -1.29166
C         45.28732        49.89019        -1.47474
C         43.99345        50.59768        -1.84466
C         45.31042        52.69835        -1.14242
C         43.98988        52.05982        -1.45171
C         45.23810        54.20009        -1.24222
C         44.05752        54.89489        -0.94237
C         45.22641        57.07306        -1.19987
C         44.03975        56.36760        -0.93406
C         45.18255        58.48817        -1.56770
C         43.93454        59.21759        -1.38520
C         45.25646        61.44241        -1.37782
C         43.97044        60.68850        -1.53242
C         45.25408        62.85315        -1.21857
C         44.00256        63.55139        -0.83159
C         45.14847        65.76417        -1.39925
C         43.92801        65.01911        -0.89013
C         45.16068        67.20183        -0.93610
C         43.95667        67.85494        -0.77198
C         45.17009        69.88591         0.09740
C         43.91832        69.29160        -0.50938
C         45.19500        71.42010         0.08554
C         43.94569        72.17927        -0.14886
C         45.24369        74.32078        -0.19906
C         43.98582        73.66415        -0.29074
C         46.48838        34.43270         4.21287
C         47.72476        36.43947         3.42149
C         46.50690        35.78018         3.75330
C         47.74230        37.73377         2.82658
C         46.51454        38.43522         2.63456
C         47.72586        40.24697         1.52905
C         46.49988        39.67978         1.96418
C         47.70075        41.52299         0.81222
C         46.47292        42.32944         0.81573
C         47.74611        44.35532         0.13458
C         46.49689        43.65579         0.35467
C         47.73260        45.73780        -0.18440
C         46.48004        46.39910        -0.48610
C         47.71276        48.60810        -0.58259
C         46.46031        47.79295        -0.83648
C         47.72980        49.81441        -1.47613
C         46.49400        50.56508        -1.67304
C         47.63988        52.77858        -2.09916
C         46.51571        52.02372        -1.80390
C         47.65717        54.25021        -1.94062
C         46.51324        54.89096        -1.23656
C         47.76618        57.11580        -1.53466
C         46.52006        56.40472        -1.19296
C         47.74510        58.55948        -1.27421
C         46.49309        59.28938        -1.61132
C         47.73317        61.44540        -1.42045
C         46.47765        60.74833        -1.43057
C         47.72778        62.89739        -1.35190
C         46.46266        63.60034        -1.21738
C         47.64413        65.75757        -1.00681
C         46.44609        65.02572        -1.14371
C         47.66758        67.16625        -0.88812
C         46.42857        67.90493        -0.78621
C         47.69763        69.91730        -0.07321
C         46.43914        69.23638        -0.39051
C         47.71822        71.42644         0.06261
C         46.45740        72.12408        -0.40972
C         47.70505        74.26333         0.00048
C         46.46722        73.61863        -0.14122
C         48.95787        38.33622         2.41141
C         50.20987        40.28624         1.52579
C         48.97379        39.60634         1.79358
C         50.26698        41.59441         1.02900
C         49.02390        42.23159         0.54185
C         50.21496        44.37539         0.24227
C         48.99302        43.68822         0.33122
C         50.21852        45.75411        -0.13084
C         48.97728        46.44014        -0.31970
C         50.21189        48.44216        -0.99464
C         48.99300        47.80897        -0.69504
C         50.22640        49.74878        -1.61538
C         48.91267        50.16289        -2.05895
C         50.14560        52.80008        -2.26114
C         48.91605        52.25951        -2.55311
C         50.24632        54.30743        -2.44837
C         48.92895        55.02063        -2.13505
C         50.22744        57.13463        -1.73149
C         48.96647        56.45387        -1.72651
C         50.29466        58.57736        -1.62625
C         49.04437        59.31874        -1.32701
C         50.18851        61.48945        -1.81436
C         48.94981        60.76132        -1.53249
C         50.19571        62.93784        -1.51296
C         48.92871        63.59909        -1.33554
C         50.14449        65.77430        -1.24614
C         48.93705        64.99702        -0.78059
C         50.16401        67.20542        -0.86967
C         48.92976        67.87851        -0.72990
C         50.17978        69.97395        -0.37687
C         48.96155        69.24783        -0.37720
C         50.18588        71.42793        -0.22315
C         49.00021        72.13212        -0.09584
C         50.17937        74.26060         0.12220
C         48.96458        73.57918        -0.00354
C         51.46139        42.34027         0.93798
C         52.67801        44.39484         0.33006
C         51.47282        43.68975         0.49385
C         52.69935        45.74999        -0.10202
C         51.45152        46.43392        -0.32716
C         52.66296        48.49584        -1.00763
C         51.45486        47.77895        -0.78335
C         52.65121        49.87130        -1.44578
C         51.38297        50.50501        -1.79763
C         52.60388        52.69458        -1.68945
C         51.42184        51.95147        -2.39910
C         52.67658        54.22126        -1.78183
C         51.46337        54.97561        -1.86445
C         52.68212        57.11896        -1.49681
C         51.43275        56.37343        -1.75212
C         52.77548        58.53896        -2.04545
C         51.47373        59.27198        -1.82690
C         52.82009        61.49931        -1.91175
C         51.48204        60.73918        -1.99695
C         52.64390        62.78589        -1.07151
C         51.40913        63.58536        -1.42211
C         52.74727        65.82292        -1.49835
C         51.42709        65.05833        -1.52531
C         52.64266        67.04272        -0.54496
C         51.38606        67.87351        -0.71790
C         52.67250        70.02173        -0.79852
C         51.39197        69.27208        -0.56030
C         52.64367        71.45196        -0.32473
C         51.45338        72.14344        -0.21482
C         52.62987        74.27310         0.25403
C         51.43852        73.58361         0.04864
C         53.89492        46.45552        -0.31795
C         55.10944        48.51876        -0.88499
C         53.89919        47.81098        -0.74751
C         55.10755        49.88680        -1.22284
C         53.88134        50.55736        -1.53306
C         55.14988        52.74839        -1.44849
C         53.95391        51.99996        -2.00929
C         55.14827        54.15067        -1.40577
C         53.89297        54.86554        -1.53301
C         55.23550        57.07952        -1.61138
C         53.93787        56.33359        -1.34855
C         55.13901        58.53316        -1.15887
C         53.97706        59.28092        -1.48973
C         55.09382        61.35394        -0.80382
C         53.95910        60.67086        -1.33388
C         55.12327        62.80200        -0.73677
C         53.92596        63.58784        -1.03957
C         55.18471        65.70954        -0.86510
C         53.92942        64.95670        -1.07848
C         55.14084        67.13364        -0.46562
C         53.91757        67.85589        -0.51753
C         55.11325        69.94356        -0.08394
C         53.90583        69.24514        -0.39296
C         55.15054        71.36798         0.03033
C         53.93830        72.14828        -0.30277
C         55.17254        74.23151         0.54674
C         53.93164        73.65659         0.02243
C         56.33034        50.61664        -1.16248
C         57.55198        52.74254        -0.91608
C         56.35072        52.02369        -1.19387
C         57.56678        54.12467        -0.89982
C         56.37234        54.86563        -1.14616
C         57.50267        56.96264        -0.52295
C         56.40585        56.30033        -1.06036
C         57.37024        58.37474        -0.08935
C         56.23066        59.18430        -0.57586
C         57.41452        61.27711         0.11146
C         56.23741        60.60034        -0.39229
C         57.43772        62.69867         0.11913
C         56.30394        63.44039        -0.35126
C         57.50337        65.60282         0.23782
C         56.42043        64.90469        -0.45847
C         57.50939        67.01781         0.28373
C         56.32582        67.78355        -0.07345
C         57.46052        69.87482         0.62745
C         56.30107        69.19458         0.15518
C         57.44309        71.25475         0.86391
C         56.30419        72.02070         0.50350
C         57.57370        74.09857         1.01439
C         56.33361        73.47812         0.68371
C         58.88449        54.84068        -0.72203
C         59.85804        56.94042         0.18236
C         58.74491        56.27788        -0.27721
C         59.85841        58.34594         0.51146
C         58.56714        59.07486         0.48551
C         59.74063        61.21487         0.96746
C         58.59456        60.55941         0.51106
C         59.70362        62.64779         1.09181
C         58.59183        63.39061         0.60147
C         59.78231        65.49787         1.12888
C         58.61764        64.83166         0.70533
C         59.77326        66.96243         1.42738
C         58.64354        67.70750         0.77709
C         59.88761        69.78569         1.11008
C         58.66794        69.11088         0.85781
C         59.89424        71.15160         1.45216
C         58.57223        71.87467         1.65518
C         59.90842        73.97244         1.76424
C         58.71728        73.36535         1.41078
C         61.00084        59.01030         0.83330
C         62.29929        61.11645         0.90556
C         61.01492        60.42708         1.34614
C         62.63769        62.30990         1.47894
C         60.78067        63.38822         1.66037
C         62.26088        65.40998         1.50081
C         60.96436        64.77612         1.45534
C         62.28330        66.84648         1.28942
C         61.12509        67.58302         1.19832
C         62.39312        69.74215         1.35485
C         61.16912        69.04695         0.82315
C         62.35190        71.12215         1.69922
C         61.08833        71.80465         1.78407
C         62.31709        73.87727         2.48072
C         61.00291        73.17160         2.41265
C         63.66270        63.27584         1.22902
C         64.73640        65.42157         1.48730
C         63.51298        64.66863         1.43137
C         64.79904        66.81000         1.45042
C         63.58671        67.56334         0.96891
C         64.78967        69.67057         1.74843
C         63.58023        69.01222         1.42054
C         64.78217        71.07445         1.94690
C         63.57247        71.80162         1.97458
C         64.74194        73.87200         2.72773
C         63.54499        73.21707         2.35984
C         65.98749        67.50740         1.74357
C         67.22393        69.58254         2.20357
C         66.03071        68.91685         1.86145
C         67.28521        70.98738         2.35880
C         66.07418        71.76738         2.05759
C         67.25461        73.76724         3.16514
C         66.05052        73.28780         2.50193
C         68.44420        71.65887         2.77240
C         68.40785        73.01411         3.18161
O         66.25858        72.83425         1.11387
O         43.48136        62.97571         0.44508
O         32.37934        71.70240        -2.11312
O         53.23797        56.86577        -0.16545
O         32.65416        57.82209         1.21624
O         36.53732        73.41045        -1.26186
O         54.10642        73.13132        -1.36641
O         43.32388        40.63014         3.20478
O         31.89297        67.59216         1.26304
O         48.35236        41.47507        -0.51502
O         38.62443        58.91338         1.16359
O         40.15192        49.02184        -2.57980
O         38.43597        46.58944         1.24101
O         40.59425        41.45358         0.14707
O         30.70150        58.65828        -1.31046
O         50.72003        61.17741        -3.18817
O         34.12311        64.29469         1.58580
O         57.55357        58.50249         1.38260
O         29.60653        67.44844        -1.72150
O         44.41702        71.89875         1.23053
O         47.63923        70.61382         1.25176
O         34.35322        69.28157        -2.04579
O         43.15045        61.22083        -2.66541
O         38.39879        54.30783         0.92356
O         56.23304        65.41237        -1.83313
O         46.43651        71.97006        -1.81548
O         45.89028        58.80820        -2.84871
O         43.98114        46.65085        -2.27116
O         29.31365        70.01109        -1.49001
O         47.95898        54.88510        -3.25057
O         48.39869        58.94066        -0.02932
O         37.29057        69.50091        -2.14002
O         41.75052        55.57431         0.77768
O         29.42695        60.75872        -1.33831
O         48.89279        51.00448        -3.17668
O         25.38814        67.46074        -0.46855
O         50.54549        65.52790        -2.62888
O         42.93169        49.39191         0.07605
O         46.78962        55.57508         0.02294
O         61.70682        62.76489         2.46496
O         45.12002        38.63548         4.55167
H         45.87115        38.37202         5.12303
O         34.36296        68.33519         1.50759
H         33.53487        68.19684         2.02542
O         50.44680        54.45545        -3.89173
H         49.54915        54.45425        -4.30072
O         28.63764        63.33804        -1.99559
H         28.65199        62.38161        -2.23128
O         63.69588        67.59288        -0.48680
H         62.88374        68.04885        -0.82425
O         52.42089        62.31047         0.29171
H         52.29451        63.08924         0.87442
O         58.20666        71.71458         3.05820
H         58.92730        72.14860         3.58483
O         52.99020        58.41498        -3.49022
H         52.14475        58.14744        -3.90974
O         54.23691        51.98985        -3.43128
H         53.40843        51.75235        -3.91377
O         52.76141        70.13539        -2.26491
H         53.43808        70.81541        -2.47347
O         43.86433        50.51733        -3.29646
H         44.65866        50.92644        -3.69956
O         55.44782        57.11096        -3.05089
H         54.69383        57.60605        -3.45929
O         52.33392        52.46134        -0.27726
H         52.92374        53.03739         0.25345
O         44.19534        37.67764         1.14906
H         43.32693        37.64451         0.69699
O         40.63360        69.96805         1.16151
H         40.56823        69.02292         1.47031
O         35.01169        49.95500        -2.80740
H         35.74759        49.45751        -3.22557
O         51.66507        51.79964        -3.81657
H         50.83408        51.46095        -4.21690
O         42.84323        71.71371        -2.20354
H         41.98273        72.08523        -2.51267
O         53.03993        66.29467        -2.82035
H         52.18898        66.32799        -3.31594
O         41.29840        69.36905        -2.42989
H         42.07025        69.86766        -2.78843
O         60.57539        72.95019         3.84082
H         61.27945        72.41923         4.27222
O         52.52614        66.43679         0.78258
H         52.37964        67.15157         1.43775
O         45.55364        52.44872         0.29685
H         44.82436        52.86783         0.80275
O         59.50040        67.07497         2.88579
H         60.15418        66.50722         3.34766
O         35.06331        52.90489        -2.63543
H         34.94214        51.97803        -2.95880
O         24.68487        70.16629        -0.04622
H         24.64102        69.31913        -0.55224
O         61.30944        69.06822        -0.65529
H         61.35537        70.00849        -0.93293
O         49.09732        64.86508         0.67165
H         48.30976        64.39723         1.02190
O         39.91308        61.35092        -2.58350
H         40.76887        61.52782        -3.03358
O         61.02727        60.31285         2.79879
H         60.20380        59.85325         3.06614
O         32.50559        61.09487         1.70339
H         33.16678        61.59535         2.22772
O         38.78752        71.85901         1.35384
H         39.47049        71.18555         1.60733
O         32.38239        73.12672        -2.35781
H         33.21325        73.25936        -2.87636
O         45.09606        69.46615         1.49570
H         44.70250        70.22434         1.99151
O         53.21900        61.86220        -3.24056
H         52.39908        61.91967        -3.78519
O         47.64160        49.05274         0.81066
H         47.57234        48.25650         1.37792
O         45.00572        65.79054        -2.86280
H         44.24844        66.37466        -3.08082
O         40.00781        71.59949        -2.09863
H         40.14087        70.70415        -2.50426
O         40.39230        67.24156         1.36322
H         41.15142        66.68327         1.64059
O         59.75217        54.11548         0.15508
H         59.36564        54.13644         1.05431
H         23.77392        74.70955         4.25689
H         26.01471        74.87391         3.22512
H         28.30134        74.97075         2.38852
H         30.64646        75.03388         1.69205
H         33.02419        75.01893         1.20840
H         35.20951        74.92956         1.40567
H         38.00845        75.34774         1.01832
H         40.31731        75.38662         0.14352
H         42.71371        75.41072        -0.20858
H         45.25941        75.42169        -0.13780
H         47.72141        75.36109         0.10044
H         50.17774        75.35311         0.25420
H         52.59802        75.31081         0.61971
H         55.18158        75.29598         0.82634
H         57.62763        75.19836         1.00442
H         60.04967        75.05338         1.61110
H         62.31278        74.92944         2.80347
H         64.67889        74.83798         3.25102
H         67.21472        74.72976         3.69548
H         22.71939        68.94260         3.27479
H         21.63992        70.95109         4.20022
H         21.78002        73.34910         4.85827
H         24.92857        64.90703         1.62731
H         23.81475        66.96914         2.42208
H         27.20453        60.91632         1.19326
H         26.09145        62.91786         1.22655
H         29.42482        56.16279         0.53242
H         28.10157        58.52973         0.88608
H         31.95920        52.20707        -0.12637
H         30.68369        54.23568        -0.11772
H         34.35252        47.95790        -0.78707
H         33.18513        50.09598        -0.44861
H         36.84128        43.84455         0.74044
H         35.57290        45.86902        -0.37539
H         39.30825        39.80547         2.73031
H         38.15162        42.41222         2.24061
H         41.86677        36.06218         4.05129
H         40.59953        37.96807         3.19341
H         45.27900        32.76725         4.85912
H         43.11698        33.96558         4.56112
H         47.43713        33.89062         4.33279
H         48.67599        35.90421         3.55903
H         49.90706        37.81145         2.59428
H         51.14611        39.79102         1.82436
H         52.41360        41.86432         1.21644
H         53.63191        43.88010         0.51881
H         54.85850        45.95495        -0.14070
H         56.06276        48.01815        -0.66028
H         57.26243        50.07040        -0.95335
H         58.48209        52.18863        -0.72228
H         59.39444        54.84907        -1.72799
H         60.80210        56.38444         0.28501
H         61.95344        58.45929         0.86416
H         62.91443        60.66324         0.11685
H         64.64899        62.92054         0.89389
H         65.67020        64.85876         1.64793
H         66.90011        66.93160         1.96483
H         68.14458        68.99383         2.33493
H         69.36974        71.08402         2.91811
H         69.31424        73.44098         3.63482
