         276
 CSIRO Nanostructure Databank - Neutral Graphene Oxide Data Set
C        -11.02023         0.45755         0.58208
C         -9.98576         1.35953         0.04714
C         -9.10386         0.93854        -1.10123
C         -7.74348         1.61055        -1.15744
C         -6.45596         0.80309        -1.17431
C         -5.36363         1.54901        -0.37546
C         -4.03903         0.77069        -0.09363
C         -2.74241         1.49520         0.22033
C         -1.42072         0.72994         0.53161
C         -0.13480         1.59148         0.59483
C          1.16939         0.80946         0.88625
C          2.47843         1.64313         0.72204
C          3.76501         0.87401         0.76289
C          4.97667         1.43917         0.05296
C          6.25740         0.67889         0.11815
C          7.52747         1.33366        -0.30952
C          8.81361         0.63045        -0.07799
C         10.09990         1.44505        -0.15689
C         11.09774         0.55536        -0.88783
C         -9.86329         2.60129         0.59063
C         -8.88610         3.59806         0.09137
C         -7.74734         3.06159        -0.72572
C         -6.46115         3.87345        -0.90694
C         -5.18084         2.99229        -0.87820
C         -3.86092         3.66074        -0.68869
C         -2.61016         2.87643        -0.35972
C         -1.31021         3.62536        -0.42788
C         -0.10277         3.04148         0.25402
C          1.22109         3.78198         0.20681
C          2.47255         2.94739        -0.08837
C          3.81259         3.71923        -0.04178
C          5.09072         2.94138        -0.13176
C          6.27476         3.51981        -0.94139
C          7.63543         2.82362        -0.66106
C          8.70245         3.57622         0.09814
C          9.75237         2.84347        -0.72517
C         -8.80068         4.93605         0.83082
C         -7.63405         5.82161         0.41705
C         -6.38751         5.08020         0.02497
C         -5.07514         5.78931         0.10512
C         -3.74248         5.08457        -0.14995
C         -2.59596         5.89638        -0.73887
C         -1.29678         5.10560        -0.76377
C         -0.02820         5.88101        -0.64143
C          1.22027         5.23474        -0.12664
C          2.51833         5.96002        -0.40798
C          3.80237         5.18298        -0.42824
C          5.08636         5.84320        -0.86983
C          6.42686         5.07816        -0.80961
C          7.46103         5.69953         0.12831
C          8.66366         4.91278         0.36495
C         -7.55413         7.10548         0.85174
C         -6.37040         7.96600         0.55517
C         -5.11302         7.28636         0.06776
C         -3.83388         8.08599        -0.03548
C         -2.57320         7.35678        -0.42084
C         -1.28356         7.94950         0.22498
C         -0.08788         7.38732        -0.55971
C          1.17397         8.17101        -0.57434
C          2.46149         7.42478        -0.79404
C          3.76131         8.12977        -0.60650
C          5.06504         7.32553        -0.62662
C          6.18937         7.91373         0.20988
C          7.44983         7.07870         0.28478
C         -6.15785         9.26788         1.23948
C         -4.96711         9.91032         1.30053
C         -3.75479         9.46198         0.56907
C         -2.41306        10.10100         0.73150
C         -1.25644         9.46548         0.38022
C          0.03840        10.15161         0.33459
C          1.20350         9.57070        -0.07673
C          2.51392        10.33571        -0.30653
C          3.74533         9.48172         0.10914
C          5.11494        10.12813        -0.08555
C          6.25274         9.40728        -0.04357
C        -10.89881        -0.86146         0.86651
C         -9.68841        -1.65587         0.69935
C         -8.37416        -0.95781         0.52476
C         -7.55009        -1.53422        -0.59529
C         -6.45395        -0.75803        -1.39583
C         -5.07521        -1.43896        -1.16806
C         -3.85091        -0.52548        -0.90520
C         -2.53000        -1.32223        -0.61403
C         -1.28351        -0.60213        -0.18085
C          0.00604        -1.30167         0.20105
C          1.22785        -0.41475        -0.06848
C          2.55776        -1.21053        -0.02288
C          3.65945        -0.66458         0.88780
C          5.03545        -1.38285         0.89600
C          6.33282        -0.64349         0.82602
C          7.63499        -1.43309         0.91319
C          8.90697        -0.71707         0.56335
C         10.11827        -1.50548         0.15004
C         11.09437        -0.78491        -0.72203
C         -9.70135        -3.01554         0.67501
C         -8.45627        -3.82494         0.38276
C         -7.55203        -3.04481        -0.58865
C         -6.38361        -3.78251        -1.27608
C         -5.04510        -2.95323        -1.09914
C         -3.87525        -3.57923        -0.38811
C         -2.58791        -2.78435        -0.22348
C         -1.29482        -3.50867         0.10851
C          0.04560        -2.78325         0.08346
C          1.31550        -3.48274        -0.31624
C          2.59402        -2.68795        -0.25425
C          3.90078        -3.45516        -0.12848
C          5.12440        -2.83153         0.47447
C          6.33537        -3.69845         0.81075
C          7.64390        -2.94139         0.96018
C          8.90346        -3.65401         0.59126
C         10.01774        -2.98918         0.19245
C         -8.78454        -5.18549        -0.31246
C         -7.50820        -6.00201        -0.36970
C         -6.29717        -5.28299        -0.88330
C         -4.98814        -5.93080        -0.58642
C         -3.82690        -5.06525        -0.21567
C         -2.53407        -5.79508         0.01454
C         -1.25535        -5.01973         0.15791
C          0.05653        -5.73701        -0.07697
C          1.34310        -4.96657        -0.14995
C          2.60379        -5.70096         0.19195
C          3.88591        -4.95617         0.00644
C          5.16776        -5.63875        -0.48152
C          6.37047        -5.14455         0.36848
C          7.72339        -5.90472         0.20857
C          8.89291        -5.14550         0.88829
C         -7.45804        -7.26892         0.11499
C         -6.19079        -8.02690         0.32252
C         -4.92920        -7.29888         0.04746
C         -3.69948        -8.07607        -0.33579
C         -2.41916        -7.25822        -0.45715
C         -1.30873        -7.77519         0.50915
C          0.05029        -7.21673         0.16267
C          1.30349        -7.97760         0.45108
C          2.57680        -7.21314         0.31686
C          3.77688        -7.93958        -0.19637
C          4.95071        -7.14774        -0.66085
C          6.72739        -8.21269         0.29089
C          7.55296        -7.29368         0.84377
C         -6.09838        -9.51134         0.40931
C         -4.94272       -10.19463         0.25582
C         -3.67322        -9.57299        -0.23531
C         -2.40430       -10.39186        -0.23412
C         -1.14655       -10.02443        -0.47672
C          0.15413        -9.90404        -0.74315
C          1.22067        -9.51194         0.29658
C          2.62508       -10.10114         0.13978
C          3.80666        -9.40901         0.08874
C          5.04653       -10.06284         0.52449
C          6.27929        -9.52445         0.75740
O          2.80266        -1.71676        -1.34892
O         -4.25472        -4.18747         0.87795
O          3.30543         1.62554         1.91426
O          2.06693        -7.61095         1.63435
O          3.94291        -7.50233        -1.62456
O         -1.94914        -5.56245         1.32246
O          6.08722        -4.79149         1.74939
O         -6.92628         1.47488        -2.36413
O         -4.34409         3.31584        -2.01339
O         -7.96218        -0.08143         1.26916
O         -0.36121         2.60806         1.63205
O          3.37747        -5.22343         1.34823
O          0.17862        -2.09782         1.38342
O          4.71761         3.59135         1.10609
O         -3.93386        -8.88826        -1.53083
O         -5.62456         5.04355         1.28660
O         -1.74481         2.79738        -1.54369
O         -2.67184         6.88536        -1.78802
O         -1.55703        -8.34194         1.55233
O         -5.51333        -5.97717        -1.92827
O          9.99481        -0.88311         1.50296
O         -4.01964         9.25684        -0.87201
O         -3.67623         1.08271         1.27306
O         -8.37807        -2.30716        -1.51659
O          3.35532         5.89099         0.79239
O          8.14115         0.50779        -1.36454
O         -8.88845         3.73375        -1.36075
O          1.21837         4.77058         1.26000
O         -4.68457        -2.27490        -2.31820
O          0.08243        -6.67362        -1.18970
O          5.20667         6.78819        -1.96282
O          4.92124        -2.89552        -0.98092
O          6.13670        -7.86101        -0.95075
O          0.26587         8.04948        -1.76859
O          7.24488         5.47121        -1.88486
O          5.34926         0.61426        -1.06719
O         -5.37066        -7.39160         1.41726
O          5.65998        -0.85063         2.10487
O         -1.52850        -0.87354        -1.58360
O          1.32014        -4.32840        -1.49221
O          8.68404         2.79435        -1.76012
O         -9.42821         0.09127        -1.91800
O         -2.12280        -2.94349         1.14778
O         -1.23709         7.38352         1.48394
O          7.74528        -2.14772         2.17801
O         -0.46545         5.36865        -1.93106
O          3.14907         8.00976        -1.93610
O         -6.07372         7.84061        -0.87659
O         -1.55039         0.25817         1.88966
H         -1.49275         1.03370         2.48877
O          2.29665         2.60246        -1.48085
H          2.98437         1.96522        -1.77062
O          8.81633        -5.30312         2.30627
H          7.97344        -4.90037         2.61715
O         -2.07286        -7.24929        -1.84044
H         -2.60308        -7.95956        -2.27991
O         -7.75208        -4.13573         1.59688
H         -7.75584        -3.35659         2.19049
O          1.07581         0.36700         2.22719
H          0.99532         1.15736         2.80120
O         -6.00970         1.75827         0.90833
H         -5.32611         1.67073         1.61652
O          3.13783        -1.00267         2.18094
H          3.68823        -0.55756         2.86164
O          5.44702        -5.18754        -1.82137
H          4.79416        -5.59518        -2.43113
O          1.11030         0.15446        -1.37616
H          1.42631        -0.50901        -2.03312
O          0.76859       -10.02084         1.56134
H          1.19824        -9.49610         2.27140
O          2.59308        10.70142        -1.68075
H          2.60245         9.87249        -2.21623
O          3.51839         9.23647         1.51285
H          4.17087         8.55788         1.82110
O         -8.67446         4.67538         2.23857
H         -7.73554         4.47008         2.43360
O         -6.75806        -0.96664        -2.77359
H         -7.64850        -0.57584        -2.94347
O         -3.67699         0.10865        -2.19153
H         -3.63081        -0.58877        -2.88240
O         -9.30890        -4.96810        -1.61561
H         -8.60290        -4.59933        -2.19608
O          5.91384         3.29910        -2.30537
H          6.55598         3.81767        -2.84671
O         -6.52632         4.48517        -2.20222
H         -6.58390         3.77270        -2.87523
O         -6.69233        -3.80810        -2.66963
H         -6.68849        -2.87025        -2.99378
O          5.71623         7.73298         1.60185
H          6.35139         8.18172         2.20000
O         -3.16528         4.86906         1.18197
H         -3.90241         4.70484         1.81563
O         10.59628         1.71338         1.16876
H         10.70768         0.83981         1.62125
O          8.06861        -5.98786        -1.17248
H          7.38883        -6.53224        -1.63313
H         11.83895        -1.39849        -1.25283
H         11.85801         1.02085        -1.53381
H         10.64134         3.42758        -1.05647
H          9.59330         5.44606         0.61939
H          8.28892         7.53582         0.83893
H          7.23066         9.89451        -0.18017
H          5.16395        11.21490        -0.25540
H          2.50825        11.27664         0.29732
H          0.04525        11.21551         0.62266
H         -2.39694        11.17836         0.96451
H         -4.88748        10.82933         1.90115
H         -7.00657         9.66950         1.81476
H         -8.42439         7.57260         1.33898
H         -9.76868         5.47934         0.68529
H        -10.49778         2.89343         1.44148
H        -11.98618         0.93587         0.81339
H        -11.78659        -1.39960         1.23416
H        -10.64827        -3.55749         0.82856
H         -9.55974        -5.72717         0.28423
H         -8.38826        -7.73107         0.48425
H         -7.01031       -10.05862         0.69465
H         -4.93998       -11.28457         0.41339
H         -2.56715       -11.46469        -0.01249
H          0.48534        -9.97698        -1.79530
H          2.68244       -11.17643         0.37889
H          4.89793       -11.09955         0.86957
H          7.01008       -10.14424         1.30064
H          8.03513        -7.47622         1.81530
H          9.85240        -5.60475         0.54830
H         10.91957        -3.56601        -0.06931
