         667
 CSIRO Nanostructure Databank - Neutral Graphene Oxide Data Set
C          6.16946        31.98643        -1.53435
C          6.21316        33.32301        -1.71225
C          8.49941        27.60793        -0.96235
C          8.52086        29.01656        -1.07808
C          7.32992        29.76218        -1.19328
C          8.64803        31.88750        -1.12219
C          7.31380        31.23147        -0.91029
C          8.73148        33.33133        -1.54892
C          7.42661        34.09189        -1.47460
C          8.66696        36.20316        -1.14244
C          7.43426        35.44987        -1.34951
C          8.69212        37.56848        -1.15187
C         10.86759        23.24645        -0.40732
C         10.86547        24.67548        -0.46219
C          9.68549        25.39866        -0.56601
C         10.98906        27.48436        -0.92531
C          9.69409        26.89295        -0.40653
C         11.03625        28.96602        -1.18205
C          9.78724        29.72283        -1.01470
C         11.10761        31.82279        -0.78985
C          9.82577        31.14426        -1.00111
C         10.98075        33.24710        -0.26629
C          9.86145        34.06276        -0.87343
C         11.05542        36.17176        -0.35704
C          9.87566        35.43105        -0.81997
C         11.07345        37.57468        -0.37192
C          9.98713        38.33616        -1.09006
C         11.02552        40.44976        -0.18663
C          9.89001        39.76111        -0.61671
C         10.99255        41.85579         0.07414
C         13.24356        18.91784        -0.14756
C         13.22678        20.33522        -0.03112
C         12.03434        21.08408        -0.16204
C         13.29966        23.21365        -0.01645
C         12.04060        22.50339        -0.18220
C         13.33524        24.60216        -0.13714
C         12.15449        25.37602        -0.37778
C         13.46087        27.51366        -0.44311
C         12.23140        26.75556        -0.59209
C         13.50149        28.89669        -0.54426
C         12.38423        29.68906        -1.21803
C         13.52798        31.75898        -0.27187
C         12.29416        31.12863        -0.73574
C         13.54139        33.24376        -0.23314
C         12.27417        34.01181        -0.35379
C         13.39437        36.15083         0.37564
C         12.24026        35.46144        -0.03696
C         13.33943        37.54549         0.56461
C         12.21174        38.27961         0.10922
C         13.43703        40.40906         0.49043
C         12.24786        39.71653         0.10658
C         13.50098        41.91156         0.30274
C         12.15075        42.59719         0.42169
C         13.25681        44.75933         1.28063
C         12.08055        43.92383         0.81250
C         13.27606        46.12699         0.62925
C         15.75560        14.63347        -0.29797
C         15.73067        16.04105        -0.38663
C         14.48085        16.76684        -0.32248
C         15.74304        18.85105        -0.03566
C         14.43630        18.15381        -0.19178
C         15.73046        20.30931         0.24414
C         14.45946        21.05838         0.18513
C         15.75639        23.14193         0.54551
C         14.51268        22.44669         0.20348
C         15.66525        24.57684         0.68913
C         14.67863        25.28450        -0.20489
C         15.75621        27.44996         0.46038
C         14.63901        26.78214        -0.01066
C         15.86139        28.88993         0.43199
C         14.83040        29.61540        -0.40775
C         15.78019        31.70166         0.76436
C         14.68020        31.06423        -0.01412
C         15.73778        33.16559         1.05331
C         14.75224        33.96962         0.26724
C         15.82835        36.06151         1.24503
C         14.67916        35.43282         0.54674
C         15.76385        37.53121         1.45763
C         14.47411        38.27172         1.15692
C         15.76000        40.40554         1.61211
C         14.53423        39.72720         1.00166
C         15.82229        41.85181         1.21507
C         14.49045        42.54407         1.29958
C         15.70634        44.65273         0.74443
C         14.55870        44.02275         1.05564
C         15.73447        46.15919         0.87128
C         14.42695        46.79196         0.42517
C         15.72739        48.94737         0.13533
C         14.43954        48.20044        -0.13702
C         15.75800        50.30362         0.31390
C         18.25371        10.34725        -0.31303
C         18.21331        11.77499        -0.46669
C         17.01494        12.48502        -0.36422
C         18.16599        14.63224        -0.70232
C         16.96355        13.91664        -0.44576
C         18.18107        16.04731        -0.69221
C         16.96360        16.73928        -0.54612
C         18.24608        18.91957        -0.55668
C         16.91732        18.22773        -0.77421
C         18.20889        20.39497        -0.43427
C         16.95189        21.10730        -0.05966
C         18.29082        23.06624         0.75085
C         16.99176        22.47333         0.52796
C         18.45435        24.22468         1.53171
C         16.54503        25.30431         1.44120
C         17.81423        27.39521         1.75811
C         16.74200        26.71971         1.24311
C         18.24052        28.72163         1.19133
C         16.98379        29.53627         0.93852
C         18.17667        31.64117         1.48429
C         17.04647        30.96958         1.04821
C         18.23579        33.16655         1.23496
C         16.94520        33.86147         1.70765
C         18.24997        36.14109         1.80424
C         16.96808        35.36888         1.50205
C         18.22023        37.44327         0.98252
C         17.02448        38.28570         1.33995
C         18.26103        40.39559         1.06270
C         17.03343        39.65152         1.28874
C         18.24950        41.75070         0.81847
C         16.97348        42.46546         0.81902
C         18.19695        44.61628         0.24123
C         16.89581        43.85924         0.23194
C         18.14808        46.03323         0.07342
C         16.95563        46.78839         0.26209
C         18.20715        48.86579        -0.01478
C         16.97156        48.18399         0.08349
C         18.20653        50.35819        -0.26020
C         17.00589        51.04302         0.34141
C         18.34434        53.09421         0.70164
C         17.09142        52.35618         0.70627
C         18.36638        54.36870         1.20331
C         20.66411         6.24489         0.68113
C         20.68123         7.53178         0.18512
C         19.39429         8.15082        -0.29438
C         20.70140        10.33422        -0.55272
C         19.43609         9.65612        -0.36482
C         20.68198        11.76839        -0.80014
C         19.44961        12.44475        -0.76029
C         20.68463        14.65065        -1.14523
C         19.38057        13.88125        -1.04167
C         20.64222        16.11139        -0.94246
C         19.44753        16.77943        -0.81146
C         20.71745        18.95433        -0.81052
C         19.43447        18.24206        -0.70307
C         20.67374        20.44657        -0.80812
C         19.47682        21.13623        -0.27308
C         20.73438        23.28983         0.04468
C         19.48608        22.42683         0.18923
C         20.90560        24.28989         1.19843
C         19.64831        25.02972         1.53263
C         20.82750        27.24476         1.76076
C         19.72687        26.32404         2.01599
C         20.71272        28.62829         1.83211
C         19.35243        29.35799         2.06021
C         20.71795        31.67829         1.75424
C         19.40172        30.90084         1.88845
C         20.68797        33.09623         1.43870
C         19.47931        33.88850         1.84025
C         20.61616        35.99245         0.98677
C         19.49694        35.34931         1.43024
C         20.68539        37.46178         0.89902
C         19.52763        38.18595         1.06614
C         20.84568        40.35437         0.85237
C         19.53845        39.64766         1.17631
C         20.78535        41.75204         0.37494
C         19.55227        42.54166         0.80240
C         20.57903        44.52487        -0.33485
C         19.44079        43.91303         0.16584
C         20.56948        46.00106        -0.67383
C         19.36357        46.73109        -0.15487
C         20.68926        48.82297         0.27817
C         19.40121        48.12636        -0.06345
C         20.74849        50.26275        -0.18151
C         19.51881        51.04926         0.02322
C         20.86968        53.05895         0.48426
C         19.58276        52.39389         0.32029
C         20.88924        54.49912         0.83563
C         19.59428        55.17799         1.27894
C         21.16502        56.79964         0.06196
C         20.23891        55.62385        -0.01521
C         21.15637        58.05288        -0.55065
C         23.02435         3.63599         1.93628
C         21.84482         4.27077         1.59461
C         23.11644         6.24034         0.83844
C         21.86871         5.57858         1.04551
C         23.13464         7.58798         0.34623
C         21.91684         8.24415         0.04468
C         23.19495        10.28776        -0.62200
C         21.90029         9.62104        -0.39512
C         23.20550        11.79100        -0.87951
C         21.91750        12.51906        -0.89428
C         23.15303        14.67327        -0.70652
C         21.93735        13.91632        -0.92192
C         23.15095        16.08495        -0.73843
C         21.92459        16.81030        -1.24398
C         23.22330        18.99405        -1.24471
C         21.90104        18.28666        -0.99497
C         23.23703        20.42238        -0.75416
C         21.99699        21.19981        -0.72572
C         23.29741        23.04516         0.42676
C         22.00131        22.50199        -0.11275
C         23.23688        24.55330         0.51825
C         22.09907        25.18003         0.95952
C         23.23859        27.33185         1.19521
C         22.07270        26.60607         1.27569
C         23.29489        28.74244         1.72845
C         21.94685        29.41694         1.48366
C         23.22428        31.67828         1.32221
C         21.94861        30.91147         1.39463
C         23.17380        33.04719         1.08236
C         21.87404        33.73330         0.88930
C         23.12593        35.95257         0.54834
C         21.84181        35.22834         0.64949
C         23.14800        37.34177         0.38241
C         21.94775        38.13796         0.61188
C         23.29474        40.27573         0.31451
C         22.00165        39.51739         0.49762
C         23.13536        41.61357        -0.41359
C         21.89059        42.33030        -0.22814
C         23.06170        44.46113        -0.88168
C         21.73682        43.70007        -0.87875
C         23.10415        45.91931        -0.49814
C         21.86199        46.68022        -0.23641
C         23.20435        48.71336         0.24100
C         21.94188        48.02390         0.02366
C         23.27289        50.09374         0.30965
C         22.08009        50.93591         0.02027
C         23.35895        52.94240         0.75276
C         22.06818        52.34838         0.43341
C         23.43557        54.28535         1.08692
C         22.19024        55.06083         1.41359
C         23.50957        57.10768         0.74279
C         22.29703        56.42077         0.80443
C         23.51976        58.38982         0.13913
C         22.31753        58.89002        -0.45323
C         23.54835        60.93318        -1.00017
C         22.36654        60.19139        -1.02171
C         24.26141         4.27333         1.71208
C         25.66351         6.15223         0.85147
C         24.31900         5.54917         1.16459
C         25.62441         7.64039         0.60262
C         24.39906         8.30004         0.26901
C         25.63816        10.40264        -0.04450
C         24.42785         9.65479        -0.10780
C         25.66007        11.82357        -0.24101
C         24.43102        12.54531        -0.54338
C         25.55743        14.66252         0.00661
C         24.37015        13.92759        -0.47566
C         25.50678        16.15455         0.10801
C         24.33027        16.85555        -0.46091
C         25.65870        18.94989        -0.54700
C         24.41220        18.22791        -0.68443
C         25.66633        20.34070        -0.71482
C         24.43825        21.08523        -0.61825
C         25.67347        23.21518        -0.42820
C         24.49233        22.50412        -0.32557
C         25.72903        24.61426        -0.01992
C         24.45004        25.31317         0.23717
C         25.76250        27.36077         1.20073
C         24.47384        26.75650         0.64716
C         25.71526        28.86514         0.96323
C         24.50232        29.52815         1.21840
C         25.67539        31.67394         1.01692
C         24.47391        30.95052         1.20139
C         25.67332        33.16021         1.25145
C         24.36489        33.82302         0.91067
C         25.56207        35.81416         0.09071
C         24.33209        35.17645         0.60126
C         25.51333        37.19869        -0.44223
C         24.34417        38.02955        -0.05998
C         25.58787        40.03143        -0.75557
C         24.40794        39.39848        -0.19106
C         25.49383        41.42191        -1.17502
C         24.29680        42.22635        -0.96251
C         25.48480        44.47969        -1.11209
C         24.32933        43.68633        -1.01299
C         25.61427        45.76846        -0.38866
C         24.37965        46.46948         0.06609
C         25.73371        48.60689         0.30997
C         24.42663        47.89953         0.61009
C         25.76180        50.00680         0.45890
C         24.53550        50.76553         0.51451
C         25.84174        52.84155         0.80865
C         24.57903        52.16746         0.67225
C         25.89752        54.23968         0.99315
C         24.68738        54.98441         1.11263
C         25.97550        57.10149         0.88169
C         24.72903        56.40144         1.02662
C         25.95338        58.46984         0.51310
C         24.75686        59.11060         0.08256
C         24.73544        60.41376        -0.47299
C         26.81359         8.34419         0.60492
C         28.07240        10.45564         0.36904
C         26.84944         9.73706         0.32100
C         28.10446        11.82954         0.16290
C         26.88207        12.50989        -0.08268
C         28.15059        14.73413         0.17044
C         26.88965        13.98847        -0.13336
C         28.07932        16.16251         0.60811
C         26.79199        16.91407         0.36778
C         28.10413        18.97787        -0.11553
C         26.88803        18.31046        -0.11278
C         28.23052        20.32853        -0.67759
C         26.90608        21.08081        -0.90084
C         28.12096        23.22532        -0.68556
C         26.92044        22.53990        -0.73404
C         28.06653        24.72546        -0.79551
C         26.88748        25.32957        -0.05367
C         28.10312        27.53618         0.06395
C         27.08447        26.63032         0.71753
C         28.11434        28.90468         0.27643
C         26.90124        29.58971         0.69203
C         28.15270        31.73557         0.73372
C         26.89551        31.00719         0.79124
C         28.14196        33.18629         0.77809
C         26.90079        33.85744         0.72124
C         28.07052        35.98247         0.35936
C         26.88008        35.20964         0.37360
C         27.99178        37.49069         0.19620
C         26.85515        37.82969        -0.81095
C         27.94995        39.87045        -1.71916
C         26.74017        39.31002        -1.01349
C         27.95357        41.39126        -1.68763
C         26.64633        41.90634        -1.83260
C         27.95764        44.48251        -1.43601
C         26.68228        44.02515        -1.71795
C         28.05023        45.81587        -0.88905
C         26.89738        46.49359        -0.46627
C         28.15518        48.56576        -0.10074
C         26.94322        47.89051        -0.05393
C         28.29730        49.93225         0.50937
C         27.01024        50.71507         0.49436
C         28.35219        52.78870         0.74365
C         27.06096        52.08970         0.67623
C         28.36059        54.19650         0.96922
C         27.16661        54.94432         1.02468
C         27.18053        56.35889         1.00654
C         29.44523        12.53830         0.05003
C         30.60326        14.73061         0.49168
C         29.43928        14.02316         0.36519
C         30.66096        16.18465         0.54307
C         29.38084        16.90508         0.69364
C         30.63602        19.07880         0.19770
C         29.35101        18.38988         0.41308
C         30.61936        20.47024        -0.02817
C         29.44136        21.12482        -0.41222
C         30.58344        23.30405        -0.45995
C         29.39652        22.55546        -0.57721
C         30.55377        24.73434        -0.38890
C         29.35757        25.40603        -0.47672
C         30.58058        27.65427        -0.62791
C         29.28279        26.87887        -0.49645
C         30.56557        29.05576        -0.19582
C         29.34581        29.66053         0.14341
C         30.63291        31.73240         0.65345
C         29.34013        31.04711         0.50213
C         30.60372        33.23094         0.81592
C         29.33127        33.95094         0.72276
C         30.52240        36.21695         0.94571
C         29.29921        35.36454         0.61821
C         30.54117        37.57551         0.14217
C         29.30165        38.08686        -0.30171
C         30.47785        40.08286        -1.45961
C         29.25386        39.21810        -1.25414
C         30.37484        41.50842        -1.84210
C         29.14535        42.17403        -1.87629
C         30.48750        44.37928        -1.56336
C         29.15900        43.69871        -1.86932
C         30.51126        45.75766        -1.01445
C         29.33916        46.46326        -0.83767
C         30.66739        48.55965        -0.30894
C         29.35938        47.96490        -0.77588
C         30.71588        49.88793        -0.00904
C         29.46249        50.72303        -0.11940
C         29.52914        52.10453         0.48159
C         31.83059        16.91579         0.46178
C         33.08583        19.07672         0.27668
C         31.86189        18.36291         0.35898
C         33.14258        20.48927         0.17162
C         31.85263        21.27947         0.29500
C         33.12037        23.37865        -0.16665
C         31.90045        22.56211        -0.52821
C         33.09172        24.75808        -0.14499
C         31.79153        25.49713         0.04728
C         33.03344        27.60378        -0.47124
C         31.85502        26.91520        -0.45968
C         32.97150        29.06469        -0.91914
C         31.81510        29.76396        -0.20943
C         33.09440        31.86830         0.03990
C         31.86631        31.09581         0.15032
C         33.05214        33.30508         0.32063
C         31.83799        33.98697         0.56639
C         33.04430        35.98114         1.03587
C         31.79971        35.37246         0.82894
C         32.99037        38.11428         0.54652
C         31.69939        38.39229        -0.01421
C         32.95720        40.28507        -1.17657
C         31.65220        39.80089        -0.55516
C         32.94753        41.45777        -1.84386
C         31.67825        42.22734        -2.15885
C         32.96671        44.18608        -1.22970
C         31.72207        43.59495        -1.52429
C         33.03569        45.54255        -0.55234
C         31.77658        46.37814        -0.66489
C         31.82681        47.69646        -0.28378
C         34.33193        21.21687         0.09277
C         35.53871        23.39334         0.19485
C         34.35855        22.65700         0.01886
C         35.54447        24.81848         0.16400
C         34.30431        25.52318        -0.03782
C         35.48732        27.69199        -0.00359
C         34.28435        26.93159        -0.16974
C         35.49708        29.09740        -0.14885
C         34.35444        29.81601        -0.86178
C         35.55048        32.03323        -0.52278
C         34.26067        31.26346        -0.38868
C         35.49851        33.43190         0.01040
C         34.25797        34.06766         0.24388
C         35.42264        36.28404         0.07791
C         34.25185        35.45219         0.58663
C         35.46781        37.77754         0.52143
C         34.20614        38.49037         0.04808
C         35.48779        40.31568        -1.03822
C         34.23542        39.45697        -1.10231
C         35.46777        41.55521        -1.62681
C         34.23112        42.18653        -2.21137
C         34.16039        43.56596        -1.58761
C         36.71689        25.57313         0.37713
C         37.88393        27.73096         0.58088
C         36.70576        26.98637         0.33842
C         37.89506        29.13141         0.49989
C         36.68863        29.83767         0.11726
C         37.91723        31.96989         0.31774
C         36.73503        31.25572         0.02485
C         37.94092        33.40562         0.31445
C         36.71775        34.14318         0.20221
C         37.94638        36.27221         0.34414
C         36.72264        35.55536         0.30272
C         37.93124        37.69123         0.11454
C         36.73514        38.41097        -0.02510
C         36.69431        39.70128        -0.57896
C         39.09460        29.86646         0.73209
C         40.34013        32.00853         0.84910
C         39.12540        31.25429         0.64531
C         40.36274        33.36983         0.76282
C         39.15434        34.12535         0.52247
C         39.15216        35.53190         0.48602
O         15.26216        34.88407        -0.72879
O         32.51559        29.07615        -2.25677
O         20.40183        40.17292         2.26260
O         15.11808        32.25889         2.00980
O         19.95627        14.24666        -2.36558
O         29.76134        27.38050        -1.80219
O         18.61221        26.79812         2.73106
O         15.95284        19.32891         1.33063
O         21.66099        34.29733        -0.48485
O         24.33193        26.41915        -0.76236
O         33.00575        37.23964         1.66036
O         17.34653        21.04357        -1.47036
O         30.18408        39.02853        -2.40507
O         25.24762        36.08706        -1.36033
O         25.65520        27.21286         2.61153
O         27.24183        16.56519         1.72093
O         10.93027        27.97883        -2.29994
O         29.33748        17.86278         1.79354
O         30.76104        32.35817         1.99286
O         17.38433        24.62389         2.35309
O         21.54383        50.62965        -1.33360
O         27.68658        14.56626        -1.24098
O         20.10349        31.40598         3.09114
O         29.88429        44.33879        -2.96968
O         23.13441        45.52516        -1.92263
O         21.20561        21.07637        -2.01549
O         22.09610        16.66415        -2.80175
O         23.35794        10.83381        -1.98315
O         25.21479        15.30628         1.27615
O         14.84903        37.85290         2.56656
O         26.52480        43.02296        -2.66635
O         25.05159        45.56739         1.00410
O         21.78851        30.07655         0.18301
O         13.07292        33.74596        -1.54183
O         27.69673        20.54795        -2.01627
O          9.08362        33.27898        -2.97917
H          9.27521        34.19640        -3.26970
O         31.41428        40.66226         0.61211
H         32.14936        40.52576         1.24727
O         23.40010        19.06220        -2.69091
H         22.60953        19.51554        -3.05935
O         35.83304        32.23017        -1.95414
H         35.59518        31.36479        -2.39230
O         31.67298        42.42512        -3.61680
H         30.97513        43.10820        -3.79644
O         32.06527        22.15386        -1.91481
H         32.04289        22.95575        -2.47810
O         16.58520        18.40991        -2.18751
H         17.38129        18.20343        -2.72102
O         24.36582        47.78781         2.07019
H         24.85675        46.96339         2.30061
O         10.67639        33.13194         1.16019
H          9.76990        32.76662         1.24655
O         20.53030        24.07573        -1.16481
H         20.47361        23.44921        -1.91954
O         27.77240        26.17212         1.91195
H         27.14615        26.43952         2.65554
O         19.39043        33.92816         3.28818
H         19.49160        32.99845         3.61539
O         29.24718        48.35181        -2.21399
H         28.44506        47.91530        -2.57470
O         35.23667        36.33448        -1.36284
H         35.29829        35.42173        -1.71771
O         15.59142        40.35548         3.07089
H         15.36371        39.41170         3.28919
O         12.79026        29.77722        -2.62266
H         12.35076        29.02129        -3.08230
O         14.03823        42.18168        -1.02651
H         13.37566        41.89101        -1.68819
O          9.70888        27.17232         1.05444
H          8.97996        26.65633         1.45991
O         13.10833        44.98258         2.71717
H         13.23812        44.09206         3.12999
O          7.07271        31.33865         0.57248
H          7.57002        30.60654         0.99802
O         15.41697        29.62498        -1.75719
H         14.67707        29.84792        -2.37838
O         20.82112        16.85937        -3.41998
H         20.43438        15.94340        -3.44106
O         18.28536        33.33252        -0.19224
H         19.20047        33.17490        -0.51101
O         29.18509        50.97001        -1.52422
H         29.26786        50.10716        -2.00829
O         14.27721        48.13460        -1.57247
H         14.98491        47.56085        -1.93310
O         34.38238        42.27842        -3.64928
H         33.47837        42.45461        -4.01247
O         19.80260        42.85435         2.21740
H         19.92431        41.98420         2.67457
O         19.62619        56.10873         2.34690
H         19.00443        55.80824         3.03966
O         18.94650        29.16759         3.42574
H         19.53234        29.72126         3.98844
O         20.62147        48.97328         1.74115
H         20.65157        48.08069         2.14661
O         19.10508         7.63894        -1.61607
H         19.82111         7.93321        -2.21647
O         13.92520        42.37488         2.62876
H         14.43424        41.65369         3.08916
O         35.59323        37.84731         1.95420
H         34.72837        37.57833         2.34197
O         15.82721        46.43420         2.30900
H         15.01122        46.06121         2.72034
O         27.81848        25.02737        -2.21291
H         26.90854        24.73042        -2.42886
O         21.40043        43.44550        -2.27713
H         22.21572        43.15426        -2.73765
O         27.67059        38.07416         1.47957
H         28.34716        37.75863         2.12092
O         25.78171        33.32750         2.71775
H         26.54772        32.79300         3.01948
O         23.50246        22.48733         1.77285
H         22.69788        22.72143         2.30475
O         26.62190         5.82875         1.86750
H         26.30616         6.20137         2.71583
O         16.60628        43.65293        -1.19811
H         15.74866        43.16263        -1.25284
O         31.66128        25.62483         1.50798
H         31.61692        24.71930         1.88468
O         28.66415        49.74091         1.91703
H         27.90851        49.30206         2.36224
O         15.16255        25.09724        -1.58151
H         14.50511        25.50102        -2.18669
O         18.83587        28.48679        -0.11543
H         18.12179        28.31677        -0.76653
O         27.78197        39.58212        -3.13692
H         28.64967        39.24022        -3.46131
O         16.83759        33.69750         3.13439
H         16.15968        32.99707         3.29757
O         18.31623        36.46833         3.19974
H         18.44389        35.61724         3.68349
O         21.13508        23.48065         2.40718
H         21.11374        24.08269         3.18175
O         34.30393        38.70831        -2.34336
H         34.39985        39.35299        -3.07612
O         34.17054        46.28426        -1.00803
H         34.04997        46.47532        -1.96072
O         31.72692        21.68638         1.68732
H         31.65731        20.87655         2.23583
O         23.47224        28.64468         3.16458
H         24.32733        28.11704         3.26421
O         23.69963        40.67442         1.67750
H         22.89117        40.93781         2.16816
O         29.86588        12.41507        -1.32570
H         29.23911        12.94614        -1.86543
O         30.34974        36.61591         2.33449
H         31.20505        37.00832         2.62427
O         22.13276        55.16071         2.85893
H         21.37732        55.76045         3.06275
O         20.48644        46.13561        -2.12329
H         21.26650        45.66157        -2.50271
O         18.03333        50.48402        -1.71930
H         17.14287        50.13471        -1.93841
O         34.82847        29.83892        -2.24108
H         34.00327        29.58042        -2.76739
O         10.44020        38.43256        -2.50410
H         11.34226        38.81816        -2.49136
O         27.33119        37.25161        -2.04576
H         26.62039        36.65221        -2.38027
O         18.04935        37.02631        -0.40195
H         18.08788        37.81692        -0.97871
H          5.23810        31.43279        -1.72620
H          5.31683        33.86503        -2.05324
H          7.53068        27.08528        -0.99409
H          6.36658        29.22998        -1.21607
H          6.48795        36.01139        -1.39460
H          7.76532        38.12869        -1.35198
H          9.91073        22.71551        -0.52463
H          8.72099        24.86985        -0.61575
H          8.96660        40.32441        -0.82110
H         10.02278        42.37515         0.02933
H         12.28292        18.39499        -0.27738
H         11.08149        20.55476        -0.31535
H         11.08645        44.39586         0.88060
H         12.31088        46.59532         0.37883
H         14.81805        14.08249        -0.13283
H         13.54359        16.19033        -0.35329
H         13.56621        48.77949         0.25410
H         14.81544        50.86252         0.42752
H         17.30968         9.80489        -0.15507
H         16.08233        11.93446        -0.17216
H         16.19266        52.88467         1.06182
H         17.43703        54.81211         1.59437
H         19.70594         5.71585         0.79193
H         18.54587         7.82340         0.35848
H         19.72887        55.39017        -0.96373
H         20.29391        58.39828        -1.13892
H         23.00458         2.62597         2.36855
H         20.87705         3.77244         1.74829
H         23.55451        61.94225        -1.43666
H         21.46349        60.61504        -1.48456
H         25.19857         3.75867         1.96695
H         26.04184         5.66637        -0.09357
H         26.90662        59.01379         0.42573
H         25.66034        61.00698        -0.51136
H         27.74829         7.82025         0.85235
H         29.00386         9.91054         0.58184
H         29.32682        54.72364         0.99075
H         28.14694        56.88322         0.95561
H         30.20946        12.00885         0.67305
H         31.55914        14.18384         0.51091
H         31.67120        50.35925         0.27228
H         30.48422        52.65364         0.46483
H         32.79197        16.38126         0.41214
H         34.02953        18.50877         0.29064
H         33.21198        45.35117         0.54517
H         32.78824        48.12106         0.04291
H         35.29396        20.68059         0.12461
H         36.48545        22.86357         0.38167
H         36.39342        42.15191        -1.66026
H         35.09897        44.11756        -1.42320
H         37.66508        25.05306         0.58126
H         38.81276        27.19822         0.83452
H         38.88800        38.19151        -0.10499
H         37.64739        40.20716        -0.80699
H         40.01409        29.31488         0.97957
H         41.26522        31.45439         1.06656
H         41.30400        33.91904         0.91149
H         40.10623        36.07258         0.57895
