         470
 CSIRO Nanostructure Databank - Neutral Graphene Oxide Data Set
C         37.44367        50.17380         1.39467
C         36.20779        50.81615         1.32976
C         37.29408        52.80797         0.50243
C         36.13162        52.13311         0.86906
C         39.91535        48.69048         0.61693
C         39.94489        50.11498         1.12796
C         38.61957        50.83408         1.00588
C         39.77768        52.90711         0.17687
C         38.54684        52.17628         0.58913
C         39.85570        54.41007         0.25394
C         42.36470        48.66322         0.60312
C         41.06860        48.01737         0.42524
C         42.38014        50.11358         0.54241
C         41.12311        50.84572         0.51112
C         42.27871        52.91598        -0.24983
C         41.06531        52.17263         0.16849
C         42.30245        54.39431        -0.08657
C         41.17933        55.06214         0.27297
C         44.82414        45.86219         0.16293
C         43.66168        46.56080         0.20158
C         44.80078        48.63680         1.01779
C         43.56450        47.94243         0.62788
C         44.83405        50.17605         0.82648
C         43.58390        50.79629         0.38630
C         44.89082        52.89481        -0.03822
C         43.61687        52.16965        -0.10879
C         44.90708        54.34979        -0.19585
C         43.61462        55.11668        -0.18789
C         44.74936        57.01841        -1.28429
C         43.61692        56.45412        -0.83157
C         47.46636        44.37847         0.15846
C         47.40416        45.74723         0.39407
C         46.09903        46.41920         0.66824
C         47.38955        48.63525         1.03206
C         46.09510        47.86920         1.05132
C         47.37916        50.15866         0.78819
C         46.11044        50.84756         0.53878
C         47.36182        52.87726        -0.18348
C         46.10868        52.19347         0.09708
C         47.33598        54.23914        -0.66679
C         46.14772        54.95370        -0.72467
C         47.35662        57.12970        -1.37128
C         46.05728        56.32840        -1.28268
C         47.42051        58.60205        -1.34714
C         49.90913        44.36688         0.21901
C         48.69704        43.70220         0.04825
C         49.87489        45.78627         0.46012
C         48.62324        46.48763         0.51381
C         49.83837        48.62475         0.64280
C         48.62783        47.90197         0.70712
C         49.85313        50.05737         0.44686
C         48.62286        50.79689         0.32454
C         49.83179        52.79880        -0.50855
C         48.57164        52.14042        -0.10746
C         49.88548        54.27001        -0.64888
C         48.61769        54.90126        -1.18666
C         49.85136        57.16356        -0.75490
C         48.57711        56.39905        -0.91155
C         49.87076        58.63641        -0.96851
C         48.59004        59.27697        -1.17934
C         52.45302        41.60997        -0.31919
C         51.27352        42.28078        -0.24379
C         52.38374        44.39607         0.26447
C         51.20771        43.69706         0.04097
C         52.30065        45.68793         1.04904
C         51.07735        46.49425         0.68508
C         52.31043        48.62916         0.79525
C         51.08064        47.90445         0.70299
C         52.32886        50.01374         0.53113
C         51.09949        50.70028         0.28194
C         52.33685        52.88415        -0.10268
C         51.12226        52.07909        -0.24228
C         52.34936        54.27102        -0.31258
C         51.08343        54.93774        -0.62724
C         52.41305        57.14245        -0.85395
C         51.12531        56.39387        -0.91974
C         52.33705        58.61120        -0.45361
C         51.07615        59.33051        -0.90137
C         52.36488        61.44905        -0.90528
C         51.17807        60.75578        -1.02537
C         55.06575        40.22537        -0.54330
C         55.01132        41.58566        -0.24897
C         53.72899        42.32737        -0.41376
C         54.99655        44.57136         0.18132
C         53.68871        43.82603        -0.11340
C         54.83907        45.65429         1.29546
C         53.58613        46.45518         1.04576
C         54.88147        48.67820         1.00573
C         53.54893        47.90088         1.12084
C         54.81536        50.05929         0.49129
C         53.58943        50.69909         0.33624
C         54.86648        52.86831        -0.08246
C         53.58269        52.10652        -0.08886
C         54.79321        54.30882         0.35456
C         53.57310        55.01715        -0.20311
C         54.83634        57.13925        -0.28838
C         53.65316        56.41474        -0.44796
C         54.91305        58.56367        -0.66443
C         53.61287        59.33219        -0.85046
C         54.87133        61.47401        -0.72701
C         53.63371        60.80294        -0.78926
C         54.96120        62.89439        -1.00281
C         57.38262        40.07801         0.17764
C         56.22953        39.47391        -0.32226
C         57.39157        41.49062         0.39321
C         56.19072        42.25485         0.20821
C         57.38899        44.28073         0.88010
C         56.19267        43.66063         0.48789
C         57.41869        45.74202         1.16918
C         56.13053        46.49466         1.32691
C         57.31286        48.53255         0.51814
C         56.14385        47.91597         0.90570
C         57.29111        49.95206         0.09943
C         56.05745        50.73741         0.23799
C         57.33699        52.86617         0.04870
C         56.11779        52.12616         0.12509
C         57.28093        54.32757         0.00208
C         56.10625        55.01570         0.11678
C         57.34922        57.22663         0.02065
C         56.05882        56.50817         0.32406
C         57.34683        58.64215        -0.04876
C         56.12367        59.35400        -0.35644
C         57.30692        61.51668        -0.08762
C         56.08595        60.74639        -0.43727
C         57.31392        63.01989        -0.28247
C         56.10842        63.60843        -0.88518
C         59.84960        37.17155         0.52665
C         58.71761        37.84642         0.23717
C         59.86855        40.02666         0.88034
C         58.56256        39.27385         0.58796
C         59.87787        41.47754         0.71346
C         58.62574        42.17353         0.67456
C         59.90718        44.27074         1.02793
C         58.61523        43.56981         0.87118
C         59.91843        45.79088         0.93233
C         58.63501        46.48808         0.79287
C         59.84368        48.57240         0.35229
C         58.59079        47.83513         0.50754
C         59.83725        49.95911         0.32626
C         58.60621        50.71732         0.04238
C         59.79680        52.92893         0.08472
C         58.57514        52.19928         0.09269
C         59.82384        54.33747        -0.04014
C         58.54710        55.06266        -0.38832
C         59.79437        57.22079         0.10368
C         58.56161        56.52462        -0.00911
C         59.79416        58.62555         0.24121
C         58.58468        59.33918         0.06607
C         59.78177        61.46592         0.13293
C         58.58979        60.77914         0.00287
C         59.79527        62.97155         0.24947
C         58.61010        63.76670        -0.25572
C         59.82395        65.92012         0.17459
C         58.65295        65.13205        -0.22047
C         62.49675        35.65460         0.66779
C         62.42552        37.08215         1.06817
C         61.07929        37.83801         1.01834
C         62.34094        39.98626         0.67329
C         61.14314        39.30066         0.84011
C         62.35401        41.42618         0.51371
C         61.11568        42.15306         0.61138
C         62.34314        44.28579         0.39974
C         61.14889        43.57681         0.64736
C         62.34890        45.72548         0.32107
C         61.14847        46.46170         0.49700
C         62.33004        48.56061         0.06338
C         61.10531        47.85790         0.31445
C         62.34133        49.96735         0.07436
C         61.10534        50.68284         0.41347
C         62.28312        52.82204        -0.26487
C         61.05979        52.19685         0.27798
C         62.26780        54.33778        -0.36806
C         61.03459        55.06771        -0.04351
C         62.27974        57.20823         0.00087
C         61.06405        56.49949         0.05779
C         62.32241        58.64342         0.00207
C         61.08605        59.31920         0.61789
C         62.10558        61.62082         0.88984
C         61.01037        60.82191         0.50233
C         62.26722        62.92870         0.25937
C         61.12146        63.43012        -0.27013
C         62.39242        65.97005         0.36848
C         61.08949        65.55575        -0.17452
C         62.46875        67.36012         0.76254
C         64.94896        35.64606         0.82403
C         63.66353        35.00395         0.48912
C         64.93107        37.16756         0.95652
C         63.64725        37.88903         0.87603
C         64.79610        40.00699         0.30963
C         63.60461        39.26797         0.65315
C         64.78963        41.39069         0.10382
C         63.55535        42.12515         0.26482
C         64.73906        44.25160        -0.23513
C         63.55855        43.55889         0.13684
C         64.74638        45.68522        -0.33385
C         63.55116        46.41534        -0.03581
C         64.77096        48.53237        -0.41273
C         63.55703        47.83347        -0.12702
C         64.78598        49.96111        -0.41135
C         63.55524        50.69182        -0.13636
C         64.83859        52.83466        -0.17006
C         63.54387        52.08463        -0.18942
C         64.72693        54.30998        -0.46773
C         63.57108        55.01583        -0.35681
C         64.79759        57.22528        -0.29922
C         63.57891        56.45313         0.09487
C         64.79461        58.58799        -0.23636
C         63.53739        59.31596        -0.20647
C         64.90007        61.48867        -0.32766
C         63.67878        60.70614        -0.75175
C         64.84909        62.99016        -0.26997
C         63.53205        63.70013        -0.03662
C         64.80693        65.70403         0.88273
C         63.51614        65.14711         0.40733
C         64.86550        67.18307         1.25817
C         63.62837        67.95905         1.11489
C         67.59456        33.01012         1.16119
C         66.45834        33.56742         0.64746
C         67.39267        35.85894         1.03537
C         66.29116        35.04666         0.38672
C         67.41132        37.29765         0.82173
C         66.17035        37.89768         0.64553
C         67.29345        39.96737        -0.28646
C         66.03142        39.23895         0.07807
C         67.23165        41.43254        -0.42713
C         65.99934        42.11008        -0.27390
C         67.10462        44.18466        -1.00977
C         65.95878        43.52071        -0.48790
C         67.01271        45.62731        -1.38297
C         65.89996        46.38907        -0.77908
C         67.16353        48.51383        -1.14431
C         65.94489        47.80272        -0.79260
C         67.17446        49.94867        -0.97895
C         65.97237        50.65120        -0.71812
C         67.24690        52.84796        -0.74970
C         65.92675        52.14614        -0.98648
C         67.27763        54.24550        -0.62822
C         66.01158        55.00415        -0.71507
C         67.33277        57.18632        -0.47300
C         66.04053        56.49442        -0.61734
C         67.34690        58.57703        -0.31179
C         66.08114        59.30621         0.11548
C         67.34320        61.50960         0.09507
C         66.05799        60.80547        -0.11523
C         67.38625        62.99789         0.01869
C         66.10591        63.71963         0.09620
C         67.39110        65.66741         0.99008
C         66.08121        65.00827         0.55402
C         67.33525        67.18578         1.06572
C         66.17738        67.88863         1.22950
C         67.34727        69.96333         1.84919
C         66.21935        69.33274         1.45722
C         70.06782        31.97216         2.52162
C         69.97157        33.31898         2.09465
C         68.66114        33.81946         1.69237
C         70.17237        36.32882         1.59038
C         68.37398        35.20304         1.75764
C         69.96606        37.48887         0.80915
C         68.65022        38.06456         0.60778
C         69.77324        40.04179        -0.38361
C         68.59028        39.33565         0.02449
C         69.66873        41.37019        -0.91638
C         68.40309        42.10111        -0.84177
C         69.39009        44.08664        -1.98469
C         68.30066        43.47217        -1.20372
C         69.41831        45.53701        -2.25038
C         68.21217        46.38608        -1.95815
C         69.48627        48.66226        -1.94367
C         68.29915        47.86291        -1.68950
C         69.60593        49.99637        -1.40923
C         68.41261        50.67990        -1.01011
C         69.69797        52.78944        -0.51178
C         68.43325        52.08563        -0.76490
C         69.72972        54.26275        -0.52807
C         68.51092        54.97845        -0.57025
C         69.77970        57.11140        -0.48311
C         68.53216        56.42356        -0.53638
C         69.79317        58.54044        -0.46036
C         68.59337        59.25435        -0.33638
C         69.85958        61.47529        -0.47602
C         68.60770        60.72539        -0.08196
C         69.89740        62.97590        -0.21648
C         68.57633        63.66304         0.05600
C         69.91279        65.78972         0.50517
C         68.55365        65.19197         0.09256
C         69.92860        67.21574         0.99661
C         68.62345        67.92277         1.18858
C         69.93148        69.83257         2.32571
C         68.60225        69.19361         1.99370
C         70.02900        71.28045         2.57939
C         72.45840        32.15178         2.79283
C         71.28078        31.39818         2.87781
C         72.40267        33.46793         2.34435
C         71.18647        34.08737         1.99560
C         72.33584        35.95160         0.66748
C         71.25009        35.45103         1.43293
C         72.29402        37.23431         0.13503
C         71.11497        38.02886         0.16905
C         72.16413        40.02845        -0.89788
C         71.02790        39.36309        -0.38579
C         72.05949        41.30649        -1.41725
C         70.82061        41.98221        -1.45273
C         71.88393        44.04046        -2.57041
C         70.70120        43.28452        -2.15220
C         71.71842        45.26522        -3.13697
C         70.46522        45.96296        -3.03187
C         71.71344        49.01837        -2.97834
C         70.54535        48.27655        -2.81421
C         71.89322        50.20364        -2.26464
C         70.84721        50.71152        -1.48938
C         72.19581        52.86508        -1.03281
C         71.00016        52.02817        -0.83009
C         72.19095        54.19553        -0.76789
C         70.97705        54.94969        -0.51803
C         72.23607        57.09088        -0.19274
C         71.00302        56.36529        -0.43146
C         72.28957        58.43973        -0.19827
C         71.11849        59.26805        -0.65517
C         71.97184        61.20125         0.78484
C         71.06425        60.66395        -0.06151
C         71.93821        62.60561         1.15442
C         71.02713        63.47284         0.64506
C         72.25121        65.55360         1.51720
C         71.12770        64.94520         0.77426
C         72.27787        66.87120         1.83627
C         71.15551        67.75816         1.64171
C         72.42626        69.77590         2.32956
C         71.19183        69.08692         2.05908
C         72.45273        71.10873         2.63104
C         71.23892        71.87523         2.72714
O         69.66249        43.27945        -3.18321
O         65.93634        55.83003        -1.94572
O         65.00371        36.26331         2.12919
O         61.23810        51.59171         1.59294
O         54.31826        58.80736        -2.00171
O         70.49337        52.12656         0.53280
O         62.93309        61.10927        -1.63491
O         50.52717        52.12840        -1.62318
O         69.87674        61.74578        -1.94034
O         58.97067        39.56636         1.95876
O         61.17060        64.51520        -1.13264
O         68.13277        61.03588         1.27443
O         69.21101        36.00383         2.55341
O         70.41692        47.19723        -3.68262
O         39.56447        53.75581        -1.00860
O         44.69136        49.53975         2.14801
O         54.29735        52.46897        -1.36099
O         51.84710        56.78093        -2.14280
O         42.94507        52.38311        -1.42827
O         66.50904        39.28068        -1.33356
O         57.95984        50.18894        -1.18496
O         64.08628        63.56807        -1.38378
O         44.39169        55.06756         1.06111
O         54.25026        48.48887         2.30295
O         64.80519        66.14048         2.30162
O         70.17725        63.18298        -1.68193
O         57.07851        62.43243         1.07060
O         69.10802        69.10589         3.35758
O         70.90053        65.59554        -0.54954
O         61.64046        37.34215         2.27578
O         69.38047        68.10350        -0.05562
O         46.76523        56.53580        -2.55861
O         47.52032        49.56203         2.13911
O         49.05008        56.75607         0.42122
O         60.03565        45.09769         2.23137
O         46.04346        46.83678         2.09023
O         62.07909        53.47742        -1.55952
O         67.10549        45.95348        -2.82387
O         56.92976        46.17290         2.51103
O         53.72942        43.32692        -1.50039
O         58.52977        55.07610        -1.85849
H         58.61219        54.14953        -2.17028
O         68.27296        65.66374        -1.23466
H         69.11056        65.60756        -1.74671
O         71.30998        59.41914        -2.09758
H         70.85320        60.24136        -2.39366
O         63.77235        56.27773         1.57287
H         63.76981        57.17666         1.97097
O         48.67833        54.72121        -2.62068
H         49.00125        53.81402        -2.80674
O         54.59366        54.25519         1.80644
H         54.78631        55.16546         2.14581
O         59.81407        63.22474         1.70178
H         58.90322        63.00384         2.01350
O         63.04345        61.15320         1.73121
H         62.73996        60.27122         2.07251
O         52.05966        45.29561         2.45559
H         52.93728        45.03578         2.83521
O         40.21919        50.04027         2.56366
H         41.07659        49.57719         2.68000
O         61.32788        59.02971         2.06885
H         60.51833        59.30191         2.55404
O         65.31555        52.79198         1.21498
H         64.64647        53.22422         1.78767
O         66.32432        35.23093        -1.06238
H         67.18453        34.89779        -1.39304
O         55.34369        45.30891        -1.01536
H         55.05890        44.75187        -1.77809
O         55.88133        56.68160         1.79624
H         56.74102        56.47259         2.22163
O         67.67483        65.21269         2.33894
H         66.88295        65.42260         2.88488
O         54.72699        44.93382         2.54911
H         55.50598        45.20997         3.09791
O         65.57345        52.29860        -2.38277
H         66.27761        51.89426        -2.93043
O         66.10023        59.20469         1.58959
H         66.87683        59.74015         1.89163
O         52.32312        58.63842         1.00569
H         51.42960        58.37722         1.31516
H         37.49764        49.14002         1.76376
H         35.29612        50.28508         1.63653
H         37.23211        53.84018         0.13113
H         35.15862        52.63877         0.79956
H         38.95132        48.17553         0.49360
H         39.00464        54.97520         0.68961
H         41.03696        46.95385         0.14826
H         41.22121        56.13720         0.50407
H         44.82010        44.84171        -0.24529
H         42.75038        46.07059        -0.16885
H         44.70946        58.00089        -1.77651
H         42.65844        56.98268        -0.94111
H         46.54004        43.79456         0.06769
H         46.49823        59.16701        -1.54450
H         48.67103        42.62315        -0.15318
H         48.56102        60.37498        -1.22392
H         52.45007        40.51116        -0.32720
H         50.34214        41.69820        -0.24434
H         52.32679        62.54704        -0.94374
H         50.26119        61.33693        -1.19747
H         54.17768        39.71021        -0.93295
H         54.07490        63.39390        -1.41904
H         56.20602        38.39342        -0.51725
H         56.14204        64.64999        -1.23582
H         59.88060        36.08816         0.34199
H         57.86789        37.31020        -0.21048
H         59.64615        66.78396         0.83278
H         57.71388        65.69411        -0.35804
H         61.55392        35.11576         0.49576
H         61.55564        67.96492         0.66658
H         63.67168        33.96768         0.11915
H         63.64166        69.04504         1.27300
H         67.68726        31.91390         1.18675
H         65.66683        32.90601         0.26392
H         67.32389        71.03155         2.10595
H         65.29091        69.91297         1.37746
H         69.14907        31.37482         2.60620
H         69.10488        71.86580         2.68260
H         73.42229        31.70686         3.07539
H         71.31450        30.35761         3.22874
H         73.33330        34.04924         2.27602
H         73.23280        35.33458         0.51556
H         73.18370        37.61160        -0.38722
H         73.14267        39.53046        -0.89763
H         72.95805        41.78374        -1.82968
H         72.88717        43.60226        -2.48591
H         72.57006        45.80618        -3.57181
H         72.48326        48.65919        -3.67267
H         72.83902        50.75078        -2.36359
H         73.13285        52.39373        -1.36165
H         73.12997        54.75349        -0.88823
H         73.14221        56.52032         0.05703
H         73.24921        58.94577        -0.01894
H         72.81997        60.60651         1.15242
H         72.75263        62.96971         1.79604
H         73.11742        64.92490         1.76533
H         73.16267        67.26332         2.35706
H         73.37575        69.23422         2.21790
H         73.41394        71.61838         2.78336
H         71.30671        72.95289         2.93130
