         618
 CSIRO Nanostructure Databank - Neutral Graphene Oxide Data Set
C         23.00307        69.57331        -1.43716
C         22.98587        70.97280        -1.62156
C         21.78213        71.67573        -1.90490
C         22.97636        73.78826        -1.94035
C         21.78901        73.05825        -2.06019
C         25.39851        65.44142        -0.23263
C         25.41735        66.84152        -0.49116
C         24.23120        67.49918        -0.89337
C         25.43322        69.63236        -1.04206
C         24.20473        68.89260        -1.12552
C         25.43462        71.03989        -1.24634
C         24.20876        71.71469        -1.51227
C         25.42618        73.84746        -1.52593
C         24.19787        73.13051        -1.66793
C         27.76502        61.24767         0.98320
C         27.70613        62.66159         0.87844
C         26.54391        63.36291         0.48056
C         27.75402        65.50783         0.47130
C         26.55386        64.75985         0.21432
C         27.86739        67.01886         0.28292
C         26.62941        67.59240        -0.37227
C         27.89357        69.68230        -0.77326
C         26.64613        68.96084        -0.71229
C         27.89675        71.06831        -1.00686
C         26.65943        71.77309        -1.16322
C         27.86713        74.02367        -1.07189
C         26.62255        73.19702        -1.28317
C         30.18095        57.07354         0.94527
C         30.22463        58.44138         1.36911
C         29.04139        59.17312         1.16342
C         30.21412        61.29390         1.46767
C         28.97221        60.57698         1.26909
C         30.18327        62.72803         1.25865
C         28.91467        63.39878         1.11365
C         30.54136        65.61393         0.22658
C         28.80233        64.81619         1.07095
C         30.36084        66.78453        -0.62014
C         29.13644        67.59109        -0.40388
C         30.34208        69.61477        -1.30246
C         29.12950        68.91780        -0.77059
C         30.37304        71.09865        -1.15288
C         29.15737        71.79554        -1.06895
C         30.34366        73.91662        -1.01141
C         29.15081        73.22877        -1.05404
C         32.88289        52.90657         1.00868
C         32.70698        54.27038         1.38920
C         31.55620        54.93703         0.87932
C         32.77624        57.11293         2.39736
C         31.07471        56.12198         1.44278
C         32.67617        58.49245         2.07458
C         31.45273        59.14906         1.75171
C         32.67436        61.39501         1.73596
C         31.42222        60.59528         1.64754
C         32.69225        62.79804         1.14264
C         31.37076        63.35016         0.80584
C         33.09902        65.38601        -0.60389
C         31.27234        64.49025        -0.05424
C         32.95994        66.77884        -0.80288
C         31.69046        67.40389        -1.23749
C         32.96800        69.70319        -1.68755
C         31.64482        68.88309        -1.54985
C         32.87338        71.12451        -1.14848
C         31.61811        71.79901        -1.11974
C         32.79366        73.96171        -0.93041
C         31.59640        73.23413        -1.00090
C         35.39229        48.77835         0.46350
C         35.32149        50.03097         1.04570
C         33.95710        50.65111         1.12951
C         35.04941        52.70292         2.10916
C         33.98805        52.13802         1.34472
C         34.78777        53.98078         2.59982
C         33.75146        54.87191         2.19100
C         35.25596        56.99757         2.40080
C         33.92338        56.29909         2.41855
C         35.26869        58.46650         2.08640
C         33.96418        59.23439         2.13621
C         35.24766        61.33847         1.38992
C         33.99397        60.69628         1.88220
C         35.21678        62.76428         1.06340
C         34.00194        63.44136         0.77451
C         35.18556        65.64127         0.58577
C         34.05079        64.78895         0.26304
C         35.26256        66.98899         0.02660
C         34.10112        67.59116        -0.53500
C         35.35941        69.75543        -0.66472
C         34.23951        68.92483        -1.22299
C         35.33000        71.19769        -0.76230
C         34.06114        71.86053        -0.96598
C         35.24807        74.03463        -0.78618
C         34.03829        73.30088        -0.87920
C         37.75423        44.58583        -0.47638
C         37.76920        45.92790        -0.01939
C         36.59520        46.70581        -0.02668
C         37.77770        48.62364         1.00606
C         36.59421        48.02836         0.46179
C         37.68941        49.92816         1.58358
C         36.47046        50.63290         1.63792
C         37.64741        52.68682         2.65810
C         36.28942        51.87994         2.53228
C         37.75015        54.14691         2.45553
C         36.68297        55.02329         2.74853
C         37.71001        56.89181         1.47625
C         36.52718        56.27210         2.18146
C         37.73719        58.40862         1.44927
C         36.38356        59.06791         1.22236
C         37.62699        61.21352         0.70071
C         36.39396        60.59039         1.23322
C         37.67567        62.68470         0.65860
C         36.48435        63.40845         0.84266
C         37.75864        65.54423         0.41490
C         36.54608        64.86664         0.85206
C         37.72814        66.95053         0.14010
C         36.50866        67.66300        -0.00332
C         37.77051        69.79795        -0.21376
C         36.51581        69.08792        -0.26437
C         37.73582        71.29430        -0.03571
C         36.48586        71.94757        -0.54938
C         37.72449        74.10171        -0.62233
C         36.49338        73.38553        -0.64855
C         40.15761        40.30354        -1.48198
C         40.13252        41.67969        -1.05162
C         38.93528        42.44661        -0.93223
C         40.15247        44.44370        -0.08796
C         38.93276        43.80919        -0.51452
C         40.20356        45.78800         0.33649
C         38.99428        46.54372         0.42751
C         40.25072        48.45418         1.35084
C         39.00720        47.87170         0.94193
C         40.21112        49.74376         2.08414
C         38.91114        50.47882         2.23210
C         40.26075        52.68488         2.29050
C         38.96603        51.95342         2.54579
C         40.28378        54.09219         2.22135
C         39.03567        54.83744         2.36097
C         40.28484        56.97050         1.65561
C         39.01041        56.31523         2.01251
C         40.23201        58.37573         1.30996
C         38.93675        59.04231         1.20868
C         40.21357        61.19752         0.62277
C         38.93768        60.44081         0.70169
C         40.15567        62.57902         0.42019
C         38.91982        63.34127         0.41459
C         40.12532        65.45318        -0.23538
C         38.91365        64.75990         0.22363
C         40.13580        66.92302        -0.26878
C         38.96122        67.64468        -0.16424
C         40.19218        69.81398        -0.66829
C         38.94566        69.09131        -0.31208
C         40.23287        71.29940        -0.62408
C         38.98237        72.03764        -0.40809
C         40.24853        74.10036        -0.84317
C         38.98677        73.42871        -0.59518
C         42.61261        36.31599        -3.07258
C         42.57519        37.55571        -2.42231
C         41.36987        38.26236        -2.17876
C         42.63714        40.18677        -1.24372
C         41.34065        39.55941        -1.60469
C         42.64069        41.63861        -0.84632
C         41.34979        42.32885        -0.76696
C         42.70238        44.39423        -0.04569
C         41.36491        43.64884        -0.15338
C         42.67621        45.83167         0.23600
C         41.46812        46.45727         0.57276
C         42.74898        48.45026         1.31023
C         41.47134        47.79878         1.10126
C         42.78559        49.79753         1.94123
C         41.49584        50.49853         2.30871
C         42.71718        52.70979         2.24771
C         41.48928        51.98398         2.27380
C         42.71430        54.12270         2.16203
C         41.48992        54.83525         2.08934
C         42.73799        57.08815         1.97051
C         41.46908        56.26839         1.86680
C         42.69127        58.30389         1.06696
C         41.42448        59.07445         1.02658
C         42.73853        61.11144         0.48389
C         41.46925        60.46805         0.69739
C         42.75298        62.58440         0.34815
C         41.43470        63.32019         0.36518
C         42.70308        65.42833        -0.14924
C         41.42093        64.69788        -0.19873
C         42.67063        66.89863        -0.06795
C         41.43049        67.59397        -0.51348
C         42.75457        69.83636        -0.51537
C         41.48668        69.07390        -0.66109
C         42.76345        71.24265        -0.63164
C         41.51585        72.02220        -0.28744
C         42.73086        74.07505        -1.03270
C         41.48946        73.45095        -0.78330
C         45.01178        33.95429        -4.77123
C         43.81994        34.49453        -4.27284
C         45.08466        36.31708        -3.28640
C         43.83246        35.69759        -3.51799
C         45.14541        37.53684        -2.48529
C         43.86043        38.19060        -2.04879
C         45.12873        40.31512        -1.60823
C         43.89773        39.61119        -1.71892
C         45.14351        41.71763        -1.29097
C         43.81968        42.44743        -1.37575
C         45.13881        44.64855        -0.76687
C         43.84414        43.87935        -0.84957
C         45.15229        45.85975         0.07716
C         43.94233        46.50268         0.36294
C         45.20460        48.59280         0.84128
C         43.92486        47.84938         0.88663
C         45.22524        50.00423         1.35024
C         43.99097        50.61879         1.84837
C         45.22329        52.68617         2.21150
C         43.99358        51.98945         2.17697
C         45.27443        54.13816         2.29740
C         43.98114        54.88948         2.24747
C         45.22053        56.94885         1.61130
C         44.02456        56.30929         1.82637
C         45.25721        58.36539         1.30177
C         44.00856        59.00483         0.84161
C         45.24818        61.14074         0.61461
C         43.99086        60.45496         0.59691
C         45.30776        62.51234         0.03321
C         43.98166        63.26251        -0.20694
C         45.02609        65.57938        -0.65813
C         43.89341        64.75770        -0.30803
C         45.16479        66.92302        -0.39705
C         43.95102        67.69210        -0.10696
C         45.19772        69.77560        -0.71261
C         43.96330        69.12390        -0.48018
C         45.19791        71.18548        -0.92685
C         43.97804        71.91884        -0.83807
C         45.19404        74.01814        -1.22654
C         43.97236        73.36813        -1.01884
C         46.24126        34.56213        -4.54029
C         47.55349        36.34455        -3.41818
C         46.32172        35.76683        -3.77260
C         47.62440        37.53660        -2.48579
C         46.36717        38.39278        -2.70733
C         47.58638        40.37920        -1.82582
C         46.36936        39.69093        -1.94290
C         47.59226        41.73477        -1.40567
C         46.34832        42.40742        -1.21394
C         47.60272        44.36274        -0.32338
C         46.41502        43.92882        -1.20868
C         47.63520        45.90635        -0.21172
C         46.45392        46.38362         0.63623
C         47.70199        48.52238         0.97713
C         46.48524        47.88188         0.79012
C         47.77243        49.89059         1.43641
C         46.51801        50.51625         1.85725
C         47.78060        52.69401         2.20008
C         46.50383        51.97840         2.27689
C         47.74785        54.15045         2.18724
C         46.56206        54.82401         2.05689
C         47.72511        57.06800         1.96214
C         46.54914        56.22660         1.51057
C         47.68199        58.42334         1.81333
C         46.44263        59.09072         1.37983
C         47.68099        61.23814         1.23065
C         46.43892        60.50209         1.06143
C         47.62296        62.70916         1.13235
C         46.55384        63.28666         0.28606
C         47.63084        65.56248         0.46834
C         46.80356        64.51109        -0.24823
C         47.65249        66.93007        -0.20327
C         46.44149        67.61086        -0.50288
C         47.66698        69.71260        -0.88570
C         46.43636        69.02600        -0.70254
C         47.63978        71.14418        -1.12568
C         46.44282        71.86576        -1.15889
C         47.62908        74.03453        -1.49810
C         46.44603        73.32137        -1.31130
C         48.85037        38.40034        -2.63787
C         50.04075        40.50682        -2.24783
C         48.83948        39.72971        -2.25302
C         50.08579        41.83335        -1.78872
C         48.84616        42.48107        -1.34820
C         50.09551        44.63674        -1.00007
C         48.87585        43.76758        -0.87142
C         50.14260        45.81859        -0.05359
C         48.94357        46.48876         0.26402
C         50.19020        48.48709         0.94108
C         48.95595        47.80069         0.78020
C         50.22937        49.88091         1.32034
C         48.97955        50.57319         1.63682
C         50.24491        52.72210         2.06624
C         48.96079        51.97982         1.99869
C         50.24490        54.20481         1.96430
C         49.02600        54.86283         2.55668
C         50.22599        57.08554         1.93779
C         48.98523        56.42803         2.54850
C         50.19815        58.48785         1.84358
C         48.91478        59.24866         2.16067
C         50.14316        61.37208         1.51849
C         48.88885        60.64149         1.56886
C         50.17069        62.76849         1.30545
C         48.91070        63.51440         1.23105
C         50.14675        65.57175         0.58622
C         48.95961        64.90959         0.74034
C         50.13262        67.07055         0.34770
C         48.86757        67.63017        -0.30082
C         50.17868        69.62229        -0.99458
C         48.87553        68.95633        -0.78958
C         50.16809        71.14388        -1.09238
C         48.89217        71.86072        -1.41530
C         50.20750        74.13145        -1.59991
C         48.92260        73.37766        -1.72571
C         51.30454        42.53349        -1.65745
C         52.56079        44.37863        -0.64320
C         51.37639        43.84196        -1.08478
C         52.64196        45.61253         0.21199
C         51.36763        46.42006         0.24888
C         52.64324        48.49446         0.62868
C         51.40324        47.78289         0.66618
C         52.66747        49.88507         0.91794
C         51.45552        50.55270         1.32416
C         52.66546        52.79292         1.30555
C         51.51266        51.97941         1.73172
C         52.60859        54.16604         1.28719
C         51.39684        54.89724         1.65197
C         52.61828        57.07989         1.37785
C         51.41070        56.36218         1.64638
C         52.62263        58.50634         1.42200
C         51.39526        59.21314         1.59280
C         52.61873        61.36239         1.41141
C         51.38498        60.65214         1.52344
C         52.61275        62.77889         1.28816
C         51.39647        63.48386         1.14600
C         52.62589        65.60924         0.67249
C         51.39668        64.89637         0.82369
C         52.64185        66.94719         0.21328
C         51.38945        67.50892        -0.39569
C         52.60694        69.73121        -0.56199
C         51.41650        68.99890        -0.53883
C         52.56117        71.18211        -0.59946
C         51.31241        71.77073        -0.44008
C         52.73533        74.14253        -1.53128
C         51.43510        73.64292        -2.03334
C         53.83733        46.45436        -0.10057
C         55.03722        48.58640         0.02620
C         53.84717        47.82416         0.17591
C         55.08034        49.95841         0.33809
C         53.89072        50.60192         0.80267
C         55.18812        52.78387         0.82148
C         53.92954        52.03879         1.11304
C         55.07743        54.23893         0.52026
C         53.77793        54.94798         0.80304
C         55.05797        57.08386         0.90158
C         53.83541        56.39657         1.04522
C         55.09023        58.50751         1.06637
C         53.86037        59.22409         1.28127
C         55.11527        61.35460         1.19603
C         53.86540        60.63511         1.34599
C         55.11008        62.74291         1.11817
C         53.89300        63.54590         1.47790
C         55.06111        65.63905         0.72236
C         53.88221        64.94827         0.91095
C         55.09931        67.05342         0.46068
C         53.83877        67.71432         0.16711
C         55.13517        69.80821        -0.35616
C         53.83316        69.06738        -0.21702
C         55.05309        71.31788        -0.15993
C         53.76672        72.03395        -0.42255
C         55.08446        74.07269        -0.93303
C         53.81424        73.42561        -0.99224
C         56.29861        50.69258         0.12737
C         57.54242        52.84365         0.09525
C         56.37799        52.07417         0.29552
C         57.56693        54.25390         0.29993
C         56.33472        54.99169         0.50305
C         57.54933        57.10752         0.61139
C         56.30506        56.37764         0.63754
C         57.55784        58.47651         0.82846
C         56.33178        59.20448         1.00502
C         57.61244        61.33203         1.00081
C         56.36127        60.62859         1.06897
C         57.63976        62.75805         0.98509
C         56.35405        63.45025         0.80010
C         57.59313        65.69238         0.83327
C         56.35088        64.93220         0.66655
C         57.57256        67.07207         0.68811
C         56.30705        67.74388         0.47552
C         57.56793        69.92073         0.17210
C         56.25728        69.25049         0.52074
C         57.53607        71.28429        -0.23261
C         56.34239        71.99837        -0.39392
C         57.54658        74.10736        -0.78187
C         56.31946        73.40771        -0.70516
C         58.77079        54.96723         0.23349
C         59.99096        57.08146         0.19267
C         58.80529        56.38690         0.36508
C         59.97353        58.58159         0.11232
C         58.89615        59.15183         1.03121
C         60.05766        61.35582         0.80467
C         58.85363        60.65247         0.92092
C         60.07325        62.78781         0.87179
C         58.83035        63.47990         0.97407
C         60.08779        65.68575         0.84716
C         58.83344        64.96738         1.26233
C         60.06745        67.10088         0.70341
C         58.81101        67.82606         0.64541
C         60.04422        69.95536         0.24332
C         58.78781        69.21591         0.35186
C         60.03693        71.29470        -0.05515
C         58.81937        71.94035        -0.66458
C         59.97067        74.17448        -0.48107
C         58.80150        73.45634        -0.60369
C         61.29227        59.26359         0.36624
C         62.52846        61.37445         0.62016
C         61.31727        60.63114         0.62068
C         62.53844        62.78860         0.66855
C         61.29490        63.51013         0.78815
C         62.53003        65.64932         0.59065
C         61.29842        64.95219         0.75410
C         62.53965        67.07838         0.55802
C         61.29733        67.79908         0.57166
C         62.51029        69.91999         0.37736
C         61.31424        69.23887         0.42536
C         62.52561        71.42141         0.45823
C         61.31948        72.05214        -0.24045
C         62.51880        74.19515        -0.34993
C         61.22358        73.56165         0.09625
C         63.74921        63.50732         0.54586
C         64.97665        65.63499         0.32260
C         63.76996        64.92383         0.49621
C         64.99693        67.05195         0.29051
C         63.77384        67.76550         0.46492
C         64.99342        69.92282         0.02877
C         63.81631        69.24674         0.67884
C         64.95584        71.31714        -0.26563
C         63.76819        72.07021        -0.09932
C         64.93205        74.10042        -0.85855
C         63.71537        73.46453        -0.42612
C         66.19446        67.77220         0.02400
C         67.33430        69.85224        -0.69639
C         66.17577        69.17635        -0.19740
C         67.31876        71.20851        -0.98293
C         66.13182        71.96602        -0.77393
C         67.33900        74.03953        -1.43088
C         66.10145        73.37956        -1.02981
C         68.55766        71.85611        -1.56183
C         68.47828        73.35300        -1.63690
O         30.73468        69.16723        -2.64692
O         38.11751        60.55323        -0.53940
O         48.90683        72.38401        -2.80306
O         30.78343        66.59538        -2.00379
O         39.41446        49.64687         3.32398
O         29.90051        65.60655         1.48352
O         39.04662        55.92043         3.40294
O         44.63989        54.68257         3.56087
O         34.06506        60.18706         3.26106
O         54.89276        52.41238         2.20520
O         44.71551        37.38901        -1.09960
O         38.40048        52.26760         3.86135
O         40.11835        70.61404        -1.91857
O         44.19622        44.82234        -1.90091
O         40.72199        64.82604        -1.47128
O         46.48715        50.87746         3.26649
O         44.66718        62.58129        -1.28512
O         43.34845        58.17840        -0.22019
O         35.66116        54.51045         3.54973
O         31.58810        56.44787         2.71533
O         49.22241        54.41849         4.01771
O         47.97526        63.37613         2.39825
O         42.25984        63.24395         1.57545
O         35.76994        65.49422         1.90121
O         32.14313        64.52012        -1.16293
O         50.47369        70.32118        -2.26488
O         46.06715        64.94655        -1.34621
O         34.72028        68.16239        -2.34863
O         35.56873        58.02916         3.43624
O         42.83881        40.63177         0.17499
O         54.30836        71.90590         0.95802
O         54.16154        54.56137        -0.58241
O         51.12911        52.21462         3.13619
O         32.63903        62.54649         2.61721
O         45.18701        49.75339        -0.10044
O         43.26116        67.42643         1.17414
O         42.23728        43.60238         1.06732
O         41.57286        68.18259        -1.85020
O         42.28174        49.85433         3.34904
O         56.35088        64.07206        -0.57777
O         46.96669        65.79197         1.74966
H         47.13832        64.99215         2.31312
O         61.62004        71.97443        -1.66420
H         60.75845        71.99244        -2.15220
O         52.82793        45.11608         1.60282
H         52.96670        45.89951         2.17726
O         51.27242        66.93189        -1.73622
H         51.98484        67.30769        -2.29479
O         35.98893        51.36380         3.84182
H         36.83973        51.31468         4.34101
O         27.90074        67.59561         1.63498
H         27.10647        67.27861         2.11437
O         59.58489        58.92167        -1.26121
H         60.26882        58.56576        -1.86599
O         54.00073        63.75714         2.94704
H         53.81351        62.89804         3.38303
O         55.93352        69.60787         1.89249
H         56.63515        69.25176         2.47628
O         62.51678        71.69236         1.89945
H         63.17531        71.06075         2.29654
O         47.63261        37.01369        -1.12589
H         46.70511        36.83555        -0.85078
O         51.11850        72.79422         0.42877
H         51.96441        72.99046         0.88500
O         47.36338        43.73941         0.95499
H         47.99724        44.09844         1.61061
O         36.01645        58.72075        -0.16744
H         36.63717        59.24654        -0.73525
O         33.16192        69.92263        -3.09758
H         33.77722        69.19323        -3.38661
O         58.92932        71.65534        -2.12234
H         58.71036        70.70659        -2.25119
O         48.90870        59.51241         3.59254
H         48.91266        58.63031         4.04523
O         37.64504        56.47610         0.07022
H         36.97180        57.06014        -0.36077
O         46.61771        45.86799         1.99445
H         45.81042        46.08998         2.50444
O         69.72712        71.45015        -0.83232
H         69.64211        71.77954         0.08559
O         49.00179        56.87446         3.93391
H         49.34190        56.13093         4.48881
O         49.92181        45.29442        -2.32649
H         49.87438        44.57865        -2.99759
O         41.50409        72.09714         1.17732
H         42.29163        72.60977         1.45743
O         58.82240        65.04507         2.75123
H         59.65214        64.62569         3.06589
O         42.74968        57.63778         3.32639
H         42.78768        56.88895         3.95955
O         50.19092        67.68789         1.66105
H         49.41970        67.37352         2.17959
O         51.53121        72.70386        -2.99366
H         50.61648        72.39163        -3.23576
O         43.52021        42.53692        -2.79960
H         44.02219        43.31552        -3.14096
O         33.19541        50.26980        -0.01455
H         32.25371        50.47213         0.15263
O         61.08611        73.82850         1.52070
H         61.68675        73.21338         2.00982
O         59.30951        58.83595         2.39496
H         58.62532        59.18008         3.00613
O         47.94836        54.46126         4.70638
H         47.69545        53.50721         4.77549
O         46.65568        44.25757        -2.59230
H         46.57427        45.23787        -2.67234
O         27.73796        74.75824         0.16500
H         27.67172        74.11049         0.89640
O         46.32469        38.76033        -4.11566
H         47.11955        39.30202        -4.30831
O         37.67674        71.45859         1.44656
H         37.56519        72.41740         1.62691
O         55.56239        69.61802        -1.73929
H         54.81641        69.85845        -2.32863
O         47.46293        46.47288        -1.53997
H         48.31657        46.31755        -2.02137
O         46.75936        56.01725         0.06070
H         46.51954        56.85262        -0.39647
O         64.02394        69.44576         2.17070
H         63.49225        68.75441         2.62281
H         22.96565        74.88109        -2.05932
H         25.41373        74.94456        -1.60653
H         27.93484        74.79851        -1.88039
H         30.33781        75.01586        -0.97546
H         32.75856        75.06047        -0.89144
H         35.20766        75.13406        -0.80488
H         37.70231        75.19478        -0.74401
H         40.21846        75.16695        -1.11462
H         42.74735        75.14769        -1.28165
H         45.20004        75.11006        -1.36551
H         47.59903        75.13375        -1.45500
H         50.22437        74.90604        -0.81907
H         52.91105        75.22356        -1.67371
H         55.13095        75.12874        -1.24320
H         57.53014        75.20363        -0.88400
H         59.92405        75.27510        -0.53371
H         62.54074        75.27474        -0.56937
H         64.92101        75.18040        -1.06861
H         67.32339        75.13533        -1.53357
H         22.06479        69.00405        -1.51522
H         20.84162        71.11372        -1.99673
H         20.84909        73.58544        -2.27618
H         24.46143        64.88427        -0.37323
H         23.30274        66.91731        -0.99093
H         26.86312        60.65288         0.77633
H         25.61511        62.80060         0.30719
H         29.43105        56.79100         0.19113
H         28.13180        58.62439         0.87732
H         32.06373        52.43498         0.44557
H         31.04897        54.50919         0.00225
H         34.48240        48.33637         0.03397
H         33.45445        50.21642         2.05051
H         36.80141        44.14658        -0.80659
H         35.65813        46.27407        -0.40753
H         39.20474        39.82780        -1.75814
H         37.97302        41.97354        -1.17804
H         41.66221        35.82441        -3.33009
H         40.41947        37.80151        -2.48816
H         44.97333        33.02428        -5.35633
H         42.86369        33.99065        -4.47356
H         47.16379        34.10964        -4.93109
H         48.48438        35.81882        -3.68274
H         49.79901        37.93394        -2.94613
H         50.97764        40.01980        -2.55863
H         52.24508        42.00006        -1.86514
H         53.48876        43.79629        -0.76056
H         54.76538        45.96239        -0.42824
H         55.94685        48.08745        -0.33887
H         57.18229        50.13895        -0.22350
H         58.47768        52.33816        -0.18830
H         59.71054        54.42815         0.04193
H         60.91067        56.53311        -0.06678
H         62.23240        58.72844         0.15783
H         63.48225        60.83996         0.49476
H         64.69565        62.95390         0.45481
H         65.91874        65.07901         0.20602
H         67.13002        67.21663        -0.13548
H         68.25781        69.27772        -0.86115
H         68.70119        71.46734        -2.61074
H         69.40171        73.88448        -1.91165
