         324
 CSIRO Nanostructure Databank - Neutral Graphene Oxide Data Set
C          1.39064         2.04155         0.85415
C          1.33778         3.39967         0.61769
C          2.59657         1.30999         0.78428
C          2.47240         4.10438         0.04528
C          1.34854         6.31826        -0.21665
C          1.37586         7.71819        -0.53570
C          2.49294         5.58380        -0.12167
C          2.53486         8.39266        -0.79910
C          1.30852        10.63113        -1.15956
C          1.35566        11.98048        -1.32055
C          2.53537         9.83035        -1.15857
C          2.58586        12.72976        -1.20277
C          1.46916        14.90097        -1.79663
C          1.48306        16.30214        -1.97733
C          2.60134        14.18608        -1.35984
C          2.64106        17.04496        -1.81534
C          2.70092        18.47012        -2.01478
C          3.82494         1.95447         0.57206
C          3.83181         3.34907         0.09032
C          5.06419         1.31815         0.78361
C          5.07362         4.12424         0.21781
C          3.80551         6.21508        -0.41934
C          3.83952         7.68629        -0.77298
C          4.99999         5.62958         0.31031
C          5.10981         8.43960        -0.55411
C          3.85294        10.60453        -0.96871
C          3.74982        12.06333        -0.83798
C          5.08974         9.88360        -0.55201
C          4.89950        12.82238        -0.31505
C          3.81542        14.89428        -1.13067
C          3.94355        16.31822        -1.60726
C          4.96230        14.27023        -0.59905
C          4.92222        17.10140        -0.76543
C          3.79941        19.20701        -1.68236
C          4.91378        18.60925        -0.91803
C          6.27737         2.03210         0.71282
C          6.25548         3.47575         0.51674
C          7.51170         1.38693         0.91451
C          7.49341         4.22634         0.61190
C          6.31444         6.32645         0.03259
C          6.29658         7.73190        -0.29785
C          7.49434         5.63702         0.30812
C          7.57959         8.46176        -0.37811
C          6.22720        10.62057        -0.25273
C          6.18685        12.07658        -0.01813
C          7.54219         9.97176        -0.29121
C          7.45749        12.83106        -0.00738
C          6.15819        14.97859        -0.31102
C          6.18271        16.42000        -0.39966
C          7.39275        14.27978        -0.00133
C          7.29168        17.18280        -0.06966
C          6.19189        19.28930        -0.75582
C          7.32104        18.61574        -0.30111
C          8.71911         2.10988         1.00769
C          8.69558         3.56024         0.90051
C          9.94360         1.42445         1.14238
C          9.90677         4.30315         1.13998
C          8.81852         6.30988         0.25658
C          8.86962         7.78356        -0.02293
C          9.97528         5.67681         0.92658
C         10.01391         8.57593         0.48803
C          8.74253        10.70340         0.16833
C          8.66326        12.12483         0.16283
C          9.94995        10.00465         0.47694
C          9.92581        12.87339         0.25923
C          8.53423        15.03978         0.26521
C          8.47740        16.51889         0.58037
C          9.83514        14.38294         0.32504
C          9.79436        17.24768         0.35976
C          8.57294        19.31803        -0.20762
C          9.78205        18.67985         0.06269
C         11.16242         2.11082         1.34800
C         11.08974         3.56710         1.61221
C         12.39635         1.47270         1.30895
C         12.39160         4.34455         1.74712
C         11.18684         6.44801         1.11264
C         11.17863         7.88745         0.92240
C         12.38839         5.79842         1.46947
C         12.36962         8.62986         1.24613
C         11.14313        10.74281         0.83185
C         11.14110        12.18393         0.74430
C         12.31522        10.06117         1.21334
C         12.29910        12.93423         0.93213
C         10.99009        15.16006         0.86009
C         10.97716        16.61570         0.57960
C         12.27401        14.41684         1.00222
C         12.27563        17.36451         0.79560
C         11.02279        19.37187        -0.05058
C         12.26443        18.75161         0.17816
C         13.63592         2.19651         1.39912
C         13.63557         3.58924         1.59780
C         14.86671         1.51598         1.17501
C         14.92061         4.30986         1.85428
C         13.62613         6.51583         1.55097
C         13.58788         7.93522         1.53286
C         14.88602         5.79866         1.57605
C         14.84141         8.66514         1.81165
C         13.51359        10.86286         1.54662
C         13.54504        12.28755         1.18900
C         14.84872        10.16605         1.76840
C         14.75282        12.99088         1.13920
C         13.54414        15.13744         0.80632
C         13.47591        16.55878         0.26262
C         14.70928        14.42543         0.84421
C         14.75047        17.36551         0.38072
C         13.47741        19.38583        -0.11438
C         14.75116        18.72637         0.02946
C         16.10217         2.21250         1.10150
C         16.12729         3.59964         1.31069
C         17.31047         1.53093         0.70541
C         17.41078         4.29632         1.42738
C         16.10044         6.45808         1.42383
C         16.15564         7.91813         1.62997
C         17.36805         5.77880         1.26402
C         17.35881         8.65547         1.20166
C         16.07748        10.89688         1.40102
C         16.01041        12.26065         1.16654
C         17.36926        10.14260         1.27543
C         17.14859        12.92418         0.46653
C         15.98655        15.17224         0.71379
C         16.01843        16.66752         0.58130
C         17.08957        14.37332         0.11965
C         17.29004        17.36336         0.16156
C         15.98457        19.42282        -0.24156
C         17.23669        18.78178        -0.26463
C         18.56907         2.10902         0.71179
C         18.70670         3.50740         1.25786
C         19.63362         1.39654         0.03155
C         19.91340         4.33840         0.97679
C         18.50061         6.50064         0.92832
C         18.48232         7.95354         0.82468
C         19.81668         5.81484         0.91160
C         19.64599         8.64223         0.18421
C         18.60564        10.84774         0.76989
C         18.50679        12.29928         0.43288
C         19.74305        10.11035         0.16864
C         19.60360        12.93077        -0.35643
C         18.25325        15.08301        -0.52801
C         18.45347        16.54713        -0.32823
C         19.42160        14.27942        -0.96651
C         19.57146        17.19694        -1.04963
C         18.46134        19.38090        -0.64212
C         19.68030        18.64877        -0.86914
C         20.98139         1.66000         0.23817
C         21.15617         3.75499         0.90661
C         22.14522         1.33032        -0.49902
C         22.34995         4.32508         0.32609
C         21.05431         6.54189         0.49199
C         20.91317         7.89515        -0.13513
C         22.35004         5.80365         0.27924
C         22.12956         8.63929        -0.50688
C         20.87127        10.76329        -0.32689
C         20.84121        12.17350        -0.66323
C         22.10321        10.03432        -0.66594
C         21.93050        12.85059        -1.20685
C         20.63205        14.97311        -1.43787
C         20.52751        16.40067        -1.65035
C         21.74322        14.19434        -1.70365
C         22.48015        17.43516        -1.41016
C         20.92634        19.29345        -0.76641
C         22.22268        18.64653        -0.71204
C         23.33829         2.11073        -0.47823
C         23.39256         3.56643        -0.22402
C         24.51562         1.45971        -0.92469
C         24.57488         4.27554        -0.73083
C         23.46678         6.50448        -0.40347
C         23.24156         7.82097        -1.10867
C         24.59011         5.68239        -0.88147
C         24.53775         8.56758        -1.29019
C         23.26299        10.75116        -1.06590
C         23.30815        12.25066        -0.91075
C         24.47253        10.03235        -1.49599
C         24.61978        12.94942        -1.32514
C         23.71905        15.27375        -1.58475
C         23.62373        16.63173        -1.15861
C         24.70498        14.39666        -1.13093
C         24.64028        17.13054        -0.29834
C         23.29092        19.16715         0.06097
C         24.50494        18.44893         0.25859
C         25.74652         2.11887        -1.11298
C         25.75452         3.55815        -1.07795
C         26.95026         1.43408        -1.41481
C         26.95260         4.25777        -1.37847
C         25.72847         6.39044        -1.32909
C         25.70987         7.86506        -1.41966
C         26.91463         5.65975        -1.52553
C         26.93672         8.55516        -1.81715
C         25.76464        10.80044        -1.70197
C         25.80920        12.23876        -1.33398
C         27.05381        10.03561        -1.84828
C         27.07965        12.83544        -0.91174
C         25.84678        14.97258        -0.50701
C         25.78869        16.32621        -0.04786
C         27.03299        14.19143        -0.35012
C         26.86822        16.86631         0.70130
C         25.57395        18.94841         1.03900
C         26.75516        18.18938         1.25294
C         28.16440         2.11584        -1.60937
C         28.20325         3.55308        -1.56036
C         29.38789         1.40992        -1.85832
C         29.43387         4.23415        -1.68080
C         28.17139         6.41108        -1.63892
C         28.01775         7.78456        -2.13713
C         29.50897         5.71071        -1.56261
C         29.90155         8.72960        -1.74917
C         28.38439        10.72850        -1.43795
C         28.25543        12.08997        -0.84352
C         29.62789         9.95154        -1.13005
C         29.45921        12.64193        -0.17552
C         28.11738        14.76784         0.31752
C         28.05274        16.09293         0.88088
C         29.38185        14.02196         0.44119
C         29.15612        16.65293         1.57204
C         27.82495        18.67655         2.03508
C         29.01402        17.92669         2.20521
C         30.57350         2.07988        -2.01859
C         30.63647         3.50895        -1.92241
C         31.86525         4.20369        -2.03660
C         30.82370         6.40247        -1.73725
C         30.92039         7.80964        -1.37496
C         31.95360         5.59482        -1.90463
C         31.90021         8.31920        -0.48231
C         30.62434        10.42607        -0.20575
C         30.53500        11.74482         0.30778
C         31.74838         9.57665         0.06911
C         31.55035        12.31675         1.14388
C         30.24464        14.39882         1.64049
C         30.49417        15.93836         1.57670
C         31.47149        13.54867         1.72579
C         31.43037        16.44740         2.62790
C         30.06276        18.41564         3.03745
C         31.21626        17.64328         3.27228
O         22.76855        14.76799        -2.47027
O         19.51281        13.09536         1.13545
O         30.05014        13.84268        -0.83395
O          9.22741         6.81301        -1.07312
O          3.41058        10.13120        -2.28854
O          5.26098        12.46771         1.07421
O         21.25768         2.44801         1.37143
O         20.69637         6.50707         1.90871
O         14.08009        10.67700         2.89696
O          3.99539         6.62278        -1.79111
O         11.46888        14.84804         2.21292
O         16.60060        13.36396        -0.82759
O         23.40980         6.49729         1.05470
O         19.85468         8.01146        -1.15822
O          7.74312         9.27227        -1.58243
O         10.19642        13.69898        -0.93709
O          4.39131        17.90919         0.30642
O          3.07451         3.49663        -1.14945
O         24.90065        10.50611        -2.85355
O         16.23715        15.98448         1.89213
O         15.61851         8.23166         2.96948
O         18.17107         3.76537         2.59798
O         27.92940        10.64033        -2.82909
O         21.57460        17.01456        -2.38127
O         18.38863        17.00820         1.05834
O         29.09701         8.32877        -2.83368
O         11.57924         3.96378         2.92807
O         18.41716        10.61276         2.20875
O         18.34407        14.60767        -1.91548
O         28.87958         6.28080        -0.33227
O         15.10026         4.21306         3.32500
H         16.05127         4.36741         3.52224
O          4.58333        16.24108        -2.93340
H          4.00184        15.70363        -3.51222
O         12.41642        17.52611         2.22300
H         12.15284        16.67262         2.64459
O         22.77407         7.44368        -2.44743
H         22.65971         8.26697        -2.96891
O         31.12674        16.17072         0.28499
H         31.31794        17.12869         0.20961
O         13.21554        16.39800        -1.16975
H         13.92915        15.85155        -1.56169
O         23.42452        12.47213         0.56234
H         22.65820        12.03605         0.99720
O         29.46054        14.19014         2.84525
H         29.52012        13.24629         3.10053
O          4.69381         5.90008         1.73087
H          5.42236         5.52657         2.27179
O          8.25226        16.62272         2.03350
H          7.33078        16.33871         2.21461
H          0.48644         1.52542         1.20779
H          0.44275         3.96940         0.90539
H          2.59239         0.24310         1.04987
H          0.36928         5.84792        -0.05015
H          0.41139         8.24259        -0.57491
H          0.33404        10.13120        -1.07312
H          0.40939        12.53300        -1.39727
H          0.52297        14.37291        -1.97223
H          0.54153        16.81271        -2.22914
H          1.82797        18.96646        -2.46647
H          5.08464         0.24975         1.04588
H          3.83161        20.28554        -1.89677
H          7.53332         0.29336         1.03129
H          6.27976        20.33781        -1.07933
H          9.95159         0.32644         1.07453
H          8.57594        20.39591        -0.43083
H         12.43557         0.38861         1.12689
H         11.00651        20.41292        -0.41126
H         14.85212         0.42952         1.00639
H         13.46296        20.42378        -0.48246
H         17.21033         0.49588         0.34541
H         15.92352        20.48159        -0.53520
H         19.33806         0.63473        -0.70566
H         18.49365        20.47570        -0.75500
H         22.15456         0.41178        -1.10659
H         20.90355        20.34472        -0.43620
H         24.47335         0.37202        -1.08710
H         23.16422        20.13853         0.56086
H         26.94040         0.33486        -1.46556
H         25.49430        19.94943         1.48806
H         29.36171         0.31189        -1.91445
H         27.73656        19.65755         2.52459
H         31.50302         1.52345        -2.20767
H         32.78328         3.62455        -2.21214
H         32.94344         6.07025        -1.96478
H         32.74763         7.68779        -0.17966
H         32.51650         9.92273         0.77268
H         32.45115        11.72068         1.34775
H         32.29058        13.87536         2.38274
H         32.37661        15.91065         2.78576
H         29.94161        19.38691         3.53639
H         31.97153        18.01918         3.97811
