         621
 CSIRO Nanostructure Databank - Neutral Graphene Oxide Data Set
C          5.80777        31.81805        -0.17401
C          5.80276        33.18256        -0.11305
C          8.28806        27.54279        -0.17688
C          8.26202        28.93013         0.01731
C          7.04840        29.67262        -0.12362
C          8.24026        31.77985         0.27727
C          7.02271        31.05901        -0.00738
C          8.21179        33.18370         0.36187
C          7.01441        33.92982         0.12189
C          8.21022        36.11224         0.12667
C          7.02537        35.33597         0.03167
C          8.25696        37.49071        -0.10889
C         10.86951        23.20048        -0.43819
C         10.78337        24.65835        -0.43702
C          9.53522        25.40490        -0.27224
C         10.70102        27.53080         0.26147
C          9.50534        26.80130        -0.10235
C         10.70402        28.90631         0.51680
C          9.47778        29.64397         0.33981
C         10.70956        31.75179         0.66405
C          9.46056        31.04150         0.47383
C         10.70742        33.14281         0.64759
C          9.45271        33.90327         0.67321
C         10.72869        36.13398         0.29170
C          9.46026        35.43002         0.52730
C         10.73323        37.51145         0.08934
C          9.47836        38.23628        -0.04885
C         10.74570        40.36633        -0.14516
C          9.52018        39.63025        -0.17130
C         10.77914        41.76214        -0.24975
C         13.41100        18.95936        -0.52673
C         13.42260        20.37171        -0.48188
C         12.18170        21.11152        -0.50480
C         13.36481        23.28295        -0.30160
C         12.09625        22.51539        -0.44910
C         13.30959        24.65020         0.29028
C         12.08013        25.41165         0.00160
C         13.10899        27.43964         1.16242
C         11.87717        26.73425         0.63211
C         13.14769        28.89601         1.07119
C         11.93859        29.61261         0.85341
C         13.18107        31.77674         1.00396
C         11.95100        31.03658         0.82723
C         13.22060        33.14533         0.77205
C         11.97140        33.84749         0.42314
C         13.26835        36.07359         0.17716
C         11.96189        35.33456         0.16609
C         13.20304        37.53664         0.44485
C         11.96742        38.25549         0.08725
C         13.25432        40.36578         0.00508
C         11.99377        39.64484         0.01151
C         13.25636        41.76534        -0.24896
C         12.01002        42.48366        -0.30649
C         13.25505        44.59189        -0.56315
C         12.03726        43.88679        -0.40734
C         13.28810        46.02768        -0.50656
C         15.85902        14.61895         0.01374
C         15.82598        16.05947        -0.04839
C         14.64037        16.75200        -0.21685
C         15.99504        18.90517        -0.54722
C         14.64509        18.17467        -0.56377
C         16.02058        20.43514        -0.54664
C         14.65377        21.05319        -0.31040
C         15.75329        23.08911         0.64206
C         14.64172        22.51271        -0.17030
C         15.66728        24.51061         1.11880
C         14.40235        25.25205         0.85001
C         15.69213        27.42212         1.24334
C         14.38491        26.66756         1.26159
C         15.63192        28.86766         0.98123
C         14.42136        29.55276         1.02555
C         15.77245        31.73092         1.14401
C         14.44446        31.02588         1.21115
C         15.80246        33.22291         1.06392
C         14.46955        33.92511         0.88657
C         15.81630        36.04914         0.67588
C         14.54572        35.33432         0.40373
C         15.78990        37.50789         0.68710
C         14.49930        38.27885         0.58131
C         15.70517        40.35346        -0.17942
C         14.49549        39.69517         0.15604
C         15.72157        41.72346        -0.51044
C         14.48770        42.45912        -0.45675
C         15.69914        44.56624        -1.06045
C         14.46831        43.86186        -0.67177
C         15.66951        46.09284        -1.18322
C         14.43091        46.79312        -0.70258
C         15.32041        49.13390        -0.73669
C         14.41440        48.17622        -0.27651
C         15.72685        50.36694        -0.17875
C         18.29511        10.39972        -0.68638
C         18.29925        11.79297        -0.37141
C         17.08331        12.49706        -0.22516
C         18.35368        14.67262        -0.16372
C         17.04668        13.89921        -0.06216
C         18.23431        15.98340         0.59400
C         17.07602        16.79529         0.11313
C         18.49635        18.85026         0.10452
C         17.15706        18.15047        -0.03074
C         18.36208        20.31469         0.49644
C         17.13833        21.05003         0.28964
C         18.12512        23.07165         1.40819
C         17.04728        22.37764         0.66669
C         18.15758        24.56011         1.41355
C         16.94607        25.26495         1.25560
C         18.19370        27.35358         1.05958
C         16.96384        26.66679         1.12159
C         18.18947        28.78185         0.63522
C         16.89038        29.53073         0.55865
C         18.23337        31.72729         0.52530
C         16.88686        31.04212         0.37672
C         18.24095        33.15818         0.45791
C         17.04301        33.90699         0.64236
C         18.27780        36.03107         0.28510
C         17.03317        35.33550         0.57494
C         18.28303        37.41987         0.05443
C         17.07341        38.22004         0.30878
C         18.23719        40.25028        -0.69257
C         16.94160        39.55166        -0.34041
C         18.21524        41.71964        -0.75174
C         16.97890        42.41945        -0.76020
C         18.21596        44.52567        -0.91889
C         16.98670        43.83412        -0.91166
C         18.21697        46.00764        -0.77175
C         16.99868        46.77042        -1.09870
C         18.28787        48.91635        -1.14643
C         17.13050        48.10421        -1.39470
C         18.17625        50.43913        -1.19088
C         16.95004        51.04103        -0.46990
C         18.23497        53.16161        -0.18223
C         17.04216        52.37940        -0.07839
C         18.24881        54.53341         0.05981
C         20.81415         6.32075        -1.90799
C         20.64944         7.72225        -1.88043
C         19.45893         8.35952        -1.43181
C         20.71225        10.56658        -1.23140
C         19.45859         9.72364        -1.06844
C         20.78493        11.75118        -0.30708
C         19.55415        12.47301        -0.16003
C         20.73205        14.43349         0.70031
C         19.57043        13.84970         0.21213
C         20.72299        15.81762         1.27848
C         19.43753        16.63848         1.17552
C         20.44559        18.89167         1.60184
C         19.44544        18.12829         1.06968
C         20.69679        20.26624         1.28491
C         19.48114        20.96990         0.99436
C         20.71333        23.03425         1.81970
C         19.42262        22.32410         1.53665
C         20.64875        24.54433         1.83552
C         19.38638        25.26260         1.48924
C         20.70642        27.35333         0.92805
C         19.40067        26.65890         1.25443
C         20.63338        28.86868         0.88456
C         19.46654        29.54044         0.65630
C         20.65532        31.69066         0.16670
C         19.44133        31.00583         0.44926
C         20.69532        33.10429         0.03994
C         19.47916        33.85283         0.23454
C         20.71743        35.96635        -0.10224
C         19.48700        35.27017         0.13054
C         20.69905        37.36238        -0.24257
C         19.49379        38.11900        -0.23432
C         20.69968        40.28636        -0.51028
C         19.50502        39.54000        -0.44109
C         20.70387        41.67847        -0.74923
C         19.45206        42.40969        -0.80999
C         20.72411        44.53915        -1.05581
C         19.43880        43.82566        -0.87419
C         20.75775        46.03009        -1.15789
C         19.50957        46.78073        -0.79577
C         20.71850        48.97371        -0.78916
C         19.49395        48.25868        -0.96764
C         20.72065        50.37408        -0.67943
C         19.47982        51.10039        -0.71940
C         20.72499        53.19283        -0.28719
C         19.48522        52.46180        -0.41654
C         20.72007        54.60011        -0.04716
C         19.46833        55.28525         0.10311
C         20.66677        57.42023         0.49045
C         19.46507        56.67279         0.31760
C         20.62699        58.81295         0.61517
C         22.90963         3.37313        -0.95140
C         21.85649         4.15671        -1.45104
C         23.34511         6.06037        -1.51102
C         22.01541         5.53702        -1.71437
C         23.67461         7.39524        -1.83351
C         21.80993         8.58317        -2.03128
C         23.29018        10.21482        -0.79475
C         21.97913         9.76467        -1.36937
C         23.25327        11.46997         0.04578
C         21.97314        12.24971         0.18935
C         23.28017        14.26209         1.12958
C         21.93720        13.57327         0.85201
C         23.25286        15.74975         0.85525
C         22.10219        16.44194         1.53387
C         23.27686        18.68276         1.19289
C         22.29228        17.87911         1.74029
C         23.21665        20.15751         1.24344
C         21.96844        20.88864         1.42143
C         23.22063        23.02172         1.45706
C         22.00906        22.32845         1.54084
C         23.26677        24.48525         1.75411
C         21.96833        25.27170         1.83899
C         23.23171        27.47334         1.38233
C         21.93805        26.77251         1.63147
C         23.21523        28.91255         0.92306
C         21.91354        29.62296         0.75445
C         23.16506        31.54416        -0.35714
C         21.83709        30.80432        -0.19117
C         23.16618        33.04867        -0.50392
C         21.92044        33.80601        -0.22355
C         23.18349        35.90944        -0.50264
C         21.96931        35.22217        -0.21565
C         23.18217        37.34459        -0.70477
C         21.97687        38.09220        -0.25118
C         23.25129        40.29853        -0.58191
C         21.98205        39.58450        -0.30965
C         23.21158        41.68930        -0.66287
C         21.96263        42.39626        -0.75803
C         23.13714        44.54327        -0.31883
C         21.97322        43.79717        -0.83186
C         23.19406        46.05345        -0.40295
C         22.08288        46.80589        -1.12423
C         23.22413        48.94430        -0.28512
C         21.94218        48.19957        -0.52961
C         23.21010        50.40709        -0.39672
C         21.97715        51.08864        -0.50835
C         23.19203        53.28110        -0.55404
C         21.94623        52.50996        -0.44097
C         23.19681        54.68826        -0.13940
C         21.95323        55.33013         0.08853
C         23.16468        57.40891         0.56032
C         21.93796        56.71741         0.42849
C         23.17614        58.80774         1.00664
C         21.80375        59.58027         0.99671
C         23.10342        61.67983         0.93248
C         21.89299        61.02554         0.83210
C         24.14268         3.92469        -0.62810
C         25.60677         5.95496        -0.55354
C         24.38322         5.30668        -0.87402
C         25.76981         7.35785        -0.68182
C         24.69053         8.12037        -1.24728
C         25.85152        10.21986        -0.59359
C         24.65237         9.64297        -1.31539
C         25.84635        11.53168        -0.09787
C         24.56788        12.13381         0.37768
C         25.83190        14.37013         0.88069
C         24.57651        13.53496         0.91539
C         25.73334        15.82500         0.67824
C         24.54277        16.51768         0.87168
C         25.65100        18.71136         0.53819
C         24.49876        17.98044         0.78954
C         25.51012        20.18570         0.21466
C         24.36985        20.89745         0.91900
C         25.62025        23.05108         0.71399
C         24.41666        22.32618         1.03005
C         25.68887        24.46782         0.89843
C         24.58489        25.25700         1.58775
C         25.67320        27.38104         0.78216
C         24.37575        26.61505         0.85637
C         25.66539        28.79939         0.53759
C         24.46396        29.51189         0.40170
C         25.63456        31.62777        -0.07329
C         24.44858        30.89279         0.00529
C         25.64694        33.04947        -0.30841
C         24.46818        33.74981        -0.45015
C         25.75338        35.95810        -0.91861
C         24.44054        35.19526        -0.77494
C         25.80021        37.42408        -0.67813
C         24.52010        38.16000        -0.76324
C         25.70644        40.32090        -0.19340
C         24.47020        39.58799        -0.49372
C         25.74362        41.74345        -0.47028
C         24.48408        42.47042        -0.87037
C         25.67841        44.61089        -0.25900
C         24.42302        43.76940        -0.03440
C         25.63212        46.03959         0.21233
C         24.45067        46.77018        -0.18697
C         25.66045        48.95730         0.23212
C         24.54618        48.23217        -0.54172
C         25.67352        50.40677        -0.19349
C         24.48367        51.07884        -0.39844
C         25.74675        53.28097        -0.25340
C         24.51687        52.54160        -0.61623
C         25.69099        54.68594        -0.06615
C         24.42906        55.37867         0.00141
C         25.65030        57.49599         0.45568
C         24.40509        56.76520         0.32833
C         25.61911        58.90483         0.66018
C         24.41345        59.59663         0.86699
C         24.34074        60.99881         0.97868
C         26.99761         8.03308        -0.45666
C         28.28933        10.14122        -0.32090
C         27.06611         9.45517        -0.49821
C         28.31508        11.54591        -0.14399
C         27.07016        12.19793         0.14286
C         28.32151        14.36898         0.19382
C         27.12537        13.61366         0.54076
C         28.23705        15.82694         0.09714
C         26.93658        16.56584         0.28341
C         28.09807        18.75277         0.18456
C         26.92950        18.05130         0.38794
C         28.03974        20.19299        -0.16255
C         26.81303        20.95273         0.19809
C         28.00385        23.09416        -0.23143
C         26.80200        22.32631         0.23289
C         28.05645        24.54869         0.10564
C         26.84903        25.21101         0.65056
C         28.10539        27.38983         0.45252
C         26.84627        26.65070         0.66636
C         28.12335        28.85526         0.65210
C         26.91809        29.50424         0.42624
C         28.23910        31.66278         0.21758
C         26.92045        30.91772         0.05242
C         28.20106        33.15369         0.29377
C         26.92266        33.81496        -0.10538
C         28.34290        35.89740        -0.65584
C         27.03177        35.17879        -0.71504
C         28.29533        37.39777        -0.74383
C         26.99176        38.08814        -0.48922
C         28.30480        40.28908        -0.21954
C         27.02539        39.53036        -0.14590
C         28.29140        41.75403        -0.22037
C         27.05308        42.43241        -0.77053
C         28.25120        44.66747        -0.13960
C         26.99794        43.94587        -0.49394
C         28.23615        46.05771         0.07891
C         26.97991        46.79548         0.28274
C         28.20862        48.91067         0.09255
C         26.98904        48.23903         0.10817
C         28.25117        50.37297        -0.17716
C         26.95592        51.12274        -0.33797
C         28.19923        53.27978         0.03848
C         26.95841        52.58851        -0.16902
C         28.14605        54.68997         0.17120
C         26.91980        55.39602         0.15143
C         26.86815        56.80469         0.35370
C         29.52937        12.28949        -0.17429
C         30.73145        14.48461        -0.30458
C         29.54085        13.70835        -0.09366
C         30.76026        15.88322        -0.15656
C         29.51123        16.58517         0.23048
C         30.65676        18.81755        -0.16160
C         29.42597        18.08631         0.20084
C         30.63007        20.20811        -0.30574
C         29.32386        20.90449        -0.47416
C         30.59813        23.08357        -0.06607
C         29.34618        22.41900        -0.62721
C         30.57233        24.48068         0.19592
C         29.37485        25.18274         0.30249
C         30.58362        27.31453         0.99972
C         29.39405        26.65339         0.39277
C         30.57063        28.79507         1.24865
C         29.35996        29.56805         0.85839
C         30.60921        31.75274         1.06035
C         29.39640        30.95204         0.77411
C         30.67366        33.17176         0.60868
C         29.51563        33.85989         0.24315
C         30.75562        35.95835         0.07021
C         29.56331        35.25291        -0.07516
C         30.90979        37.39507        -0.42855
C         29.57590        38.15489        -0.59292
C         30.75116        40.35205        -0.18568
C         29.48899        39.59749        -0.22844
C         30.73278        41.78602         0.28453
C         29.44677        42.49527        -0.07442
C         30.68556        44.68067         0.11198
C         29.46835        43.95138        -0.08306
C         30.69647        46.07766         0.23415
C         29.45374        46.79192         0.21353
C         30.66228        48.94857         0.73596
C         29.42578        48.21083         0.29001
C         30.64492        50.42672         0.44037
C         29.48638        51.13001         0.15833
C         29.42078        52.55343         0.15182
C         31.91795        16.66088        -0.30207
C         33.08684        18.82358        -0.42204
C         31.89477        18.09250        -0.26640
C         33.09188        20.23910        -0.39293
C         31.84307        20.94516        -0.33786
C         33.08303        23.05402        -0.14037
C         31.84193        22.38184        -0.20494
C         33.12653        24.51601         0.02699
C         31.85094        25.25197         0.23636
C         33.14566        27.36720         0.94045
C         31.88564        26.57917         0.94403
C         33.15633        28.74588         1.03835
C         31.90917        29.50436         1.34271
C         33.19006        31.69535         0.95912
C         31.91916        31.00724         1.26374
C         33.16460        33.15430         0.88489
C         31.93147        33.85698         0.68694
C         33.16725        35.99172         0.72361
C         31.94862        35.27771         0.49418
C         33.13322        37.47091         0.85215
C         31.81798        38.17596         0.53433
C         33.24458        40.39877         0.36395
C         32.01431        39.61310         0.06509
C         33.25373        41.78330         0.14886
C         31.98547        42.51523        -0.24902
C         33.30583        44.70756         0.26371
C         31.95064        43.93186         0.27055
C         33.18989        46.14265         0.10550
C         31.95743        46.83064         0.24606
C         31.91705        48.22777         0.32816
C         34.31129        20.96279        -0.42719
C         35.55180        23.10530        -0.35425
C         34.33014        22.36585        -0.29169
C         35.63754        24.48416        -0.03943
C         34.40821        25.13664         0.49293
C         35.68875        27.37286         0.75830
C         34.41313        26.59515         0.88420
C         35.60138        28.84043         0.61252
C         34.38770        29.50548         0.84883
C         35.68410        31.66620         0.96629
C         34.35608        30.95977         0.85485
C         35.63030        33.14757         0.70564
C         34.38636        33.87415         0.87596
C         35.67021        36.02457         1.07005
C         34.37770        35.30389         0.90465
C         35.76593        37.56635         1.14738
C         34.41598        38.25942         0.95155
C         35.68493        40.35025         0.30841
C         34.44790        39.69176         0.57024
C         35.69606        41.74084         0.10027
C         34.49400        42.50486         0.11588
C         34.49030        43.91529        -0.03766
C         36.79286        25.23025        -0.22958
C         37.93395        27.46985        -0.47629
C         36.91285        26.63928         0.15690
C         37.92702        28.85222        -0.36472
C         36.79021        29.56343         0.20657
C         37.93643        31.69966        -0.21534
C         36.80376        30.95702         0.24581
C         37.96090        33.10566        -0.11679
C         36.79056        33.81355         0.36119
C         38.04938        36.00129         0.04793
C         36.90401        35.26014         0.62969
C         38.00053        37.38909        -0.07402
C         36.87744        38.17665         0.31065
C         36.86555        39.54285         0.10215
C         39.03270        29.61342        -0.86616
C         40.20199        31.76456        -1.22137
C         39.06315        30.99672        -0.77911
C         40.22555        33.12317        -1.10181
C         39.10907        33.84746        -0.54692
C         39.12599        35.24974        -0.48306
O         27.90216        35.22571        -1.88743
O         31.20361        31.60522         2.38942
O         16.65071        38.15187         1.69832
O         17.41048        39.56463        -1.72129
O         26.32577        39.86008         1.09778
O         26.26005        44.60498        -1.59690
O         22.44448        59.06458         2.22087
O         13.67836        37.96844         1.76613
O         15.29666        31.26856         2.41928
O         22.69287        24.87068         3.03908
O         27.74394        50.67609        -1.51988
O         17.46711        28.90359        -0.66014
O         15.05487        26.99545         2.51488
O         33.60014        37.96944         2.16045
O         15.52847        45.25642        -2.36798
O         18.38803        16.02340         2.03949
O         27.31563        33.73914         1.31830
O         28.99489        37.92347        -1.92805
O         15.40403        23.40656         2.04686
O         23.17762        10.13236         0.66610
O         18.47964        22.40429         2.66046
O         31.60784        39.95167        -1.31572
O         11.70705        25.35029        -1.38347
O         34.44726        25.51806         1.89525
O         15.47331        18.41229        -1.81072
O         12.12315        26.82961         2.06959
O         20.66032        45.28545        -2.41376
O         22.46123        48.37150         0.82504
O         31.17701        29.08471         2.53504
O         25.03436        35.51185        -2.10076
O          9.37423        34.79663         1.85436
O         26.23076        46.33177         1.51773
O         27.82240        31.17827        -1.09787
O         32.61069        44.16875         1.49442
O         23.15939        15.95544        -0.55384
O         22.87020         8.04858        -2.76904
O         27.41951        16.18388        -1.08600
O         22.66366        29.82770         1.97195
O         31.07412        26.56499         2.15658
O         22.66988        27.39664         2.72064
O         36.58562        35.46766         2.05622
O         14.31399        23.22911        -1.42526
O         22.73490        45.36906         0.84231
O         15.12588        33.84656         2.19657
O         26.74107        13.96707         1.94173
O         23.73152        37.81617        -1.96629
O         16.01574        48.76634        -1.90532
O         28.83158        27.19043        -0.85795
O         21.36388        15.80681         2.59883
O         28.50876        20.34009        -1.56347
O         22.11988        38.86992         0.99015
O         32.50865        25.29135        -1.07767
O         36.75835        26.91431         1.61020
O         21.31587        18.39894         2.58513
O         23.15196        32.15690        -1.69339
O         20.56874        23.75757         3.07008
O         18.90847        46.39073         0.48723
O         18.54935        15.02996        -1.51270
O         23.89205        53.01972        -1.84005
O         14.09462        35.66511        -0.96437
O         11.91464        34.41004        -0.98034
O         27.69724        24.08619        -1.27522
O         24.68865        12.40451         1.81637
O         29.61825        17.33046         1.48099
O         22.54188        13.69429         2.20315
O         30.83072        41.70577         1.72675
H         30.93133        42.61062         2.09233
O         20.56643        11.20514        -2.55671
H         20.28328        10.51862        -3.19745
O         21.51688        30.21053        -1.48011
H         21.80377        30.86033        -2.16492
O         16.32609        20.85173        -1.91066
H         15.92310        20.17649        -2.50688
O         16.50348        31.28785        -1.01122
H         16.98891        30.62532        -1.55658
O         22.50823        47.00259        -2.49588
H         22.07877        46.28233        -3.02589
O         31.91256        42.60398        -1.68456
H         31.91002        41.67988        -2.03439
O         24.78514        10.06427        -2.69581
H         24.15930         9.51650        -3.22456
O         36.16620        37.90062         2.49698
H         35.42128        37.65272         3.08806
O         25.10115        20.20612        -1.20357
H         25.83517        19.82672        -1.73465
O         24.87540        48.32374        -1.94642
H         24.16121        47.86850        -2.45845
O         20.97121        26.96664        -0.46719
H         20.38290        27.48881        -1.05465
O         25.32984        48.96070         1.64327
H         25.43105        48.03327         1.97215
O         36.01839        31.55803         2.40326
H         36.75202        32.18335         2.58713
O         24.40949        43.37837         1.34531
H         23.92658        44.07537         1.84658
O         30.64215        48.87144         2.22674
H         30.73226        47.92544         2.47287
O         31.55934        37.30978        -1.70680
H         30.85327        37.34963        -2.39328
O         29.55410        22.63010        -2.04758
H         29.06972        23.45728        -2.28862
O         31.06164        38.24274         1.76365
H         31.70016        38.42950         2.49069
O         25.10506        25.55256         2.89696
H         24.32367        25.65827         3.49398
O         24.51581        42.85999        -2.27631
H         24.42963        42.04524        -2.81518
O         23.97139        26.33307        -0.51105
H         24.74395        25.97401        -0.99840
O         27.20914        42.28329        -2.22100
H         26.60541        42.95679        -2.62321
O         18.02737        50.82044        -2.59048
H         18.78462        50.45115        -3.09071
O         19.10770        18.81731        -1.21751
H         19.02937        17.90545        -1.57522
H          4.87345        31.27120        -0.36833
H          4.86587        33.73834        -0.26462
H          7.35559        27.01607        -0.42870
H          6.11886        29.12947        -0.35152
H          6.08053        35.85159        -0.19924
H          7.32418        38.02708        -0.34107
H          9.93340        22.62435        -0.38876
H          8.58485        24.85505        -0.34118
H          8.57759        40.18697        -0.28581
H          9.83478        42.32197        -0.32680
H         12.44988        18.42523        -0.50700
H         11.25062        20.53409        -0.60595
H         11.09190        44.44865        -0.37816
H         12.35873        46.53973        -0.21386
H         14.89875        14.07825         0.04108
H         13.67729        16.22074        -0.17905
H         13.66857        48.46221         0.48146
H         15.05703        50.85295         0.54942
H         17.33163         9.86744        -0.70294
H         16.13656        11.94550        -0.34197
H         16.14627        52.86719         0.33691
H         17.30088        55.05980         0.24660
H         19.88246         5.73810        -1.80296
H         18.55051         7.76126        -1.26339
H         18.50232        57.20035         0.39309
H         19.68309        59.34613         0.42647
H         22.73057         2.30504        -0.76278
H         20.86966         3.69363        -1.59757
H         23.11911        62.77783         0.87433
H         20.97885        61.58632         0.58916
H         24.92868         3.30550        -0.17374
H         26.43752         5.35652        -0.15186
H         26.56772        59.46235         0.66780
H         25.27212        61.58243         0.96257
H         27.90292         7.45853        -0.21265
H         29.23381         9.57894        -0.34865
H         29.07965        55.24931         0.33234
H         27.81088        57.36062         0.47027
H         30.47147        11.75692        -0.36886
H         31.66039        13.95694        -0.56572
H         31.57006        50.98555         0.65194
H         30.34428        53.11819         0.34976
H         32.87962        16.16242        -0.49480
H         34.04176        18.28606        -0.51688
H         34.08989        46.71503        -0.16277
H         32.86559        48.78632         0.33156
H         35.25914        20.41336        -0.52530
H         36.47282        22.57052        -0.63022
H         36.65520        42.25269        -0.06570
H         35.41718        44.43472        -0.32045
H         37.65203        24.76628        -0.73790
H         38.73809        26.97521        -1.04189
H         38.84309        37.90169        -0.56425
H         37.74949        40.02743        -0.34075
H         39.89162        29.07399        -1.29229
H         41.06178        31.22829        -1.64843
H         41.10386        33.69447        -1.43580
H         39.99449        35.79011        -0.88924
