         640
 CSIRO Nanostructure Databank - Neutral Graphene Oxide Data Set
C         22.98731        27.49788         0.88556
C         22.99466        28.82018         0.45695
C         23.00467        31.72603        -0.01556
C         23.04763        33.07079        -0.11356
C         23.06557        35.89940        -0.92585
C         23.07358        37.17140        -1.39339
C         23.09696        40.19203        -1.70023
C         23.10337        41.53534        -1.49672
C         23.10952        44.46615        -1.40051
C         23.11738        45.83879        -1.42489
C         25.38957        24.69061         1.40990
C         24.20594        25.40214         1.36453
C         25.43248        27.42616         0.69522
C         24.19793        26.77579         0.99528
C         25.43146        28.79884         0.29929
C         24.19451        29.48844         0.17012
C         25.48700        31.61372        -0.27800
C         24.17588        30.87537        -0.43463
C         25.50443        33.02945        -0.39585
C         24.27473        33.77843        -0.43238
C         25.54206        35.85057        -0.84891
C         24.28978        35.15609        -0.71449
C         25.57510        37.23925        -1.17626
C         24.33463        37.88557        -1.62594
C         25.59058        40.14062        -1.41433
C         24.34946        39.43696        -1.76853
C         25.56327        41.56668        -1.31334
C         24.32908        42.28150        -1.37913
C         25.56280        44.42177        -1.31650
C         24.32531        43.71346        -1.35405
C         25.57460        45.85152        -1.36327
C         24.34390        46.56418        -1.41798
C         25.55353        48.67317        -1.46782
C         24.36112        47.98275        -1.46479
C         27.89830        23.19732         1.59341
C         27.87811        24.54503         1.16097
C         26.62979        25.29664         1.09898
C         27.87365        27.33307         0.40443
C         26.65290        26.68130         0.74049
C         27.87919        28.69944         0.08209
C         26.67993        29.45342         0.02319
C         27.93330        31.58828        -0.31578
C         26.69564        30.88629        -0.22034
C         27.96795        32.99265        -0.38682
C         26.74668        33.72765        -0.45531
C         27.99913        35.85522        -0.69450
C         26.76107        35.14478        -0.65691
C         28.00187        37.27376        -0.83093
C         26.78013        37.97270        -1.10793
C         28.01070        40.13573        -0.98158
C         26.79029        39.41864        -1.20830
C         28.01884        41.56497        -1.01431
C         26.79569        42.28242        -1.17558
C         28.03263        44.42176        -1.17732
C         26.79865        43.70788        -1.21763
C         28.05040        45.85143        -1.29448
C         26.80924        46.57212        -1.36762
C         28.05687        48.71204        -1.44493
C         26.80371        47.99309        -1.42438
C         28.10992        50.12985        -1.49376
C         30.29044        23.05472         1.20662
C         29.07240        22.46101         1.58029
C         30.31677        24.44106         0.89496
C         29.10261        25.16110         0.81558
C         30.40279        27.29197         0.46171
C         29.12949        26.52401         0.16589
C         30.42989        28.68517         0.17931
C         29.17782        29.33532        -0.25139
C         30.48086        31.55227        -0.31651
C         29.19438        30.83767        -0.44199
C         30.44324        32.98297        -0.40381
C         29.23897        33.68864        -0.43827
C         30.42425        35.86586        -0.38929
C         29.23055        35.14506        -0.51719
C         30.43737        37.28350        -0.47431
C         29.22544        37.99807        -0.70059
C         30.44689        40.13987        -0.51648
C         29.23141        39.42902        -0.74455
C         30.46309        41.58680        -0.58266
C         29.24344        42.28528        -0.86392
C         30.48863        44.42272        -0.94654
C         29.25459        43.70723        -0.99455
C         30.51794        45.83226        -1.17170
C         29.27856        46.55180        -1.33040
C         30.51924        48.69404        -1.49302
C         29.28832        47.99062        -1.43146
C         30.55018        50.10546        -1.54498
C         29.31129        50.80573        -1.52901
C         32.83099        20.23336         1.52871
C         31.63088        20.86902         1.50614
C         32.83959        23.00452         0.81898
C         31.50974        22.24305         1.01176
C         32.78732        24.46413         0.95438
C         31.58947        25.16200         0.84294
C         32.76051        27.43758         1.24270
C         31.56804        26.60818         0.80230
C         32.86574        28.77091         0.53570
C         31.65760        29.42073         0.15901
C         32.99409        31.51751        -0.39785
C         31.66513        30.83080        -0.16222
C         32.96357        33.00302        -0.16191
C         31.73354        33.74398        -0.61314
C         32.93872        35.88301        -0.12758
C         31.65585        35.11768         0.05604
C         32.92669        37.28694        -0.23583
C         31.66587        38.00449        -0.33467
C         32.90620        40.11594        -0.01076
C         31.64920        39.40681        -0.31700
C         32.90116        41.62365        -0.03984
C         31.65816        42.31879        -0.41966
C         32.92505        44.45283        -0.57543
C         31.70344        43.72979        -0.65447
C         32.96248        45.83042        -0.88611
C         31.75683        46.51198        -1.19886
C         33.02982        48.68392        -1.28596
C         31.79805        47.92972        -1.70798
C         33.02626        50.10588        -1.29615
C         31.81419        50.81314        -1.53364
C         33.01506        52.95448        -1.51373
C         31.88746        52.23618        -1.75390
C         35.38215        18.77000         1.42697
C         35.34192        20.18238         1.38552
C         34.08649        20.90597         1.26843
C         35.34631        23.02316         1.00851
C         34.10336        22.28469         1.06587
C         35.32103        24.41567         0.96680
C         34.06382        25.15675         1.20839
C         35.35321        27.37237         1.04874
C         34.07585        26.65441         1.29128
C         35.35263        28.77561         0.88219
C         34.11422        29.46778         0.56886
C         35.37901        31.57357         0.41558
C         34.17175        30.83466         0.24352
C         35.35298        32.98979         0.32481
C         34.13240        33.70533         0.08882
C         35.37060        35.88607        -0.08821
C         34.14907        35.17354        -0.01030
C         35.37235        37.27125        -0.33116
C         34.16049        37.98918        -0.33598
C         35.36924        40.15447        -0.32367
C         34.19181        39.43737        -0.26057
C         35.38031        41.60095        -0.22267
C         34.19230        42.30751        -0.18485
C         35.44539        44.46622        -0.30720
C         34.14729        43.79211         0.01521
C         35.45393        45.85953        -0.57757
C         34.22489        46.55768        -0.87107
C         35.48660        48.71240        -1.11575
C         34.21908        47.95794        -1.07699
C         35.45326        50.17591        -0.94183
C         34.24777        50.84335        -1.04831
C         35.52143        53.03398        -1.01936
C         34.18758        52.33730        -0.79634
C         35.60279        54.40186        -1.26176
C         37.82209        18.72439         1.29332
C         36.59038        18.07093         1.26859
C         37.78255        20.12824         1.87260
C         36.56821        20.89805         1.38222
C         37.83558        22.99246         1.21709
C         36.59951        22.29135         1.14855
C         37.88866        24.42799         0.91645
C         36.55352        25.19118         0.79904
C         37.80851        27.34871         1.02121
C         36.56347        26.65535         0.99875
C         37.82949        28.76863         1.02791
C         36.59894        29.48040         0.87854
C         37.84833        31.62460         0.76372
C         36.60331        30.89760         0.73433
C         37.86505        32.99498         0.56479
C         36.59478        33.72886         0.54911
C         37.93079        35.86665         0.09300
C         36.62368        35.21065         0.30277
C         37.93932        37.27180        -0.35212
C         36.64904        37.97808        -0.61883
C         37.91753        40.16790        -0.28025
C         36.64780        39.49765        -0.78897
C         37.88093        41.60862        -0.13930
C         36.65893        42.30274        -0.16845
C         37.87999        44.45811        -0.01947
C         36.64701        43.74579        -0.15839
C         37.87472        45.87971        -0.10950
C         36.69513        46.54661        -0.49650
C         37.92502        48.75108        -0.31671
C         36.77054        47.97865        -0.80934
C         37.87104        50.16123        -0.36525
C         36.69574        50.87315        -0.70243
C         37.99361        52.99318        -0.84629
C         36.72632        52.30320        -0.82905
C         38.04285        54.39114        -1.18089
C         36.84866        55.06297        -1.37624
C         39.98405        16.16677        -0.38751
C         38.94524        16.78935         0.21417
C         40.27238        18.76675         0.86484
C         39.04968        18.09179         0.85964
C         40.41457        20.14065         1.42217
C         39.11345        20.88073         1.82999
C         40.13321        23.16322         1.95152
C         39.02207        22.36276         1.69395
C         40.32487        24.51858         1.52042
C         39.09941        25.22753         1.20092
C         40.31073        27.35880         1.15053
C         39.04532        26.60893         1.12063
C         40.26455        28.80514         1.42328
C         39.08182        29.49514         1.20005
C         40.28435        31.67407         1.18478
C         39.09994        30.94253         1.06218
C         40.36037        33.07019         0.85952
C         39.15083        33.68691         0.20633
C         40.37769        35.89799         0.21198
C         39.11002        35.19583         0.26410
C         40.38124        37.33840         0.02183
C         39.18947        38.03857        -0.19556
C         40.42043        40.23762        -0.33642
C         39.12294        39.47426        -0.21314
C         40.35006        41.65886         0.15835
C         39.11712        42.33242         0.09931
C         40.29263        44.48530         0.50570
C         39.09476        43.75885         0.21774
C         40.25194        45.90455         0.52581
C         39.08580        46.61646         0.15706
C         40.30421        48.79315         0.33742
C         39.07548        48.04773         0.11502
C         40.30855        50.16769         0.21096
C         39.03059        50.95291         0.17689
C         40.38419        53.03966        -0.21578
C         39.16131        52.31786        -0.44549
C         40.46879        54.43131        -0.49633
C         39.40574        55.03990        -1.38110
C         40.56010        57.22882        -0.97427
C         39.43989        56.54381        -1.35083
C         42.32783        16.33247        -1.33815
C         41.33648        16.72630        -0.32962
C         42.61784        18.94182        -0.16346
C         41.48062        18.12182         0.30124
C         42.68934        20.30016         0.24951
C         41.67334        20.87066         1.08592
C         42.97546        22.99576         1.19068
C         41.94689        22.12511         1.63787
C         42.89753        24.45516         1.32211
C         41.59314        25.12402         1.42424
C         42.90221        27.25368         1.64407
C         41.60327        26.59336         1.20380
C         42.83799        28.77568         1.72084
C         41.52090        29.50807         1.76532
C         42.79007        31.66378         1.21287
C         41.50157        31.04388         1.82799
C         42.81432        33.19009         1.47937
C         41.54709        33.80973         0.88635
C         42.86461        35.85763         0.12808
C         41.55855        35.18527         0.47102
C         42.83934        37.35899         0.32882
C         41.63154        38.07176         0.16002
C         42.83827        40.20977         0.29969
C         41.64201        39.48911         0.12088
C         42.81559        41.66652         0.43086
C         41.55541        42.35954         0.43534
C         42.75561        44.45461         0.93847
C         41.53578        43.77104         0.67286
C         42.74594        45.89413         1.23367
C         41.43378        46.65961         0.97404
C         42.72861        48.77327         0.88670
C         41.52095        48.08817         0.67826
C         42.76275        50.20544         0.79158
C         41.60816        50.89887         0.11992
C         42.58965        53.13799         0.89623
C         41.47435        52.36884         0.37227
C         42.67201        54.55946         0.61035
C         41.63103        55.17078        -0.11757
C         42.87829        57.30320        -0.03447
C         41.69782        56.58192        -0.39907
C         43.44094        17.07250        -1.55714
C         44.83386        19.13035        -1.23043
C         43.64545        18.37918        -0.95816
C         44.98709        20.43543        -0.69704
C         43.88580        21.04241        -0.00353
C         45.29502        23.06015         0.36513
C         44.01227        22.37510         0.46708
C         45.31906        24.55254         0.71560
C         44.03392        25.20054         0.97115
C         45.31787        27.42016         0.93455
C         43.99604        26.70305         0.74186
C         45.34080        28.78665         1.22031
C         44.10566        29.53914         1.49498
C         45.37041        31.68281         1.68628
C         44.08237        30.90996         1.49945
C         45.34244        33.12259         1.20241
C         44.10490        33.84301         1.03436
C         45.30652        35.95363         0.69649
C         44.09450        35.18979         0.69351
C         45.29475        37.32642         0.53122
C         44.05591        38.06083         0.41288
C         45.29791        40.20543         0.57064
C         44.06680        39.49357         0.42235
C         45.32651        41.70899         0.39570
C         44.00226        42.38479         0.62924
C         45.24998        44.51799         1.09994
C         43.99981        43.78465         0.89319
C         45.25386        45.95014         1.25447
C         44.00529        46.65245         1.21311
C         45.16578        48.79989         1.32445
C         43.95471        48.06099         1.17300
C         45.16240        50.22597         1.30341
C         43.92280        50.91201         1.07178
C         45.15795        53.13523         1.17871
C         43.89512        52.37937         1.24057
C         45.15296        54.54314         1.10980
C         43.83080        55.32997         1.20250
C         43.90224        56.73190         0.66069
C         47.09200        19.22027        -2.19272
C         45.89903        18.60251        -2.07089
C         47.44101        20.42491        -1.36165
C         46.21149        21.17141        -0.90038
C         47.53523        23.27672        -0.72153
C         46.36021        22.48389        -0.45919
C         47.58854        24.66834        -0.34834
C         46.47377        25.33707         0.23121
C         47.70997        27.45856         0.28309
C         46.50032        26.73312         0.48297
C         47.75161        28.85125         0.59487
C         46.57379        29.52862         1.04468
C         47.80486        31.64240         1.01092
C         46.59938        30.93342         1.20792
C         47.82100        33.10542         1.07433
C         46.55396        33.79036         1.07995
C         47.82868        35.96247         0.86810
C         46.54443        35.28437         1.23838
C         47.82493        37.36268         0.72294
C         46.57210        38.08111         0.30585
C         47.73550        40.25317         0.83878
C         46.51306        39.53568         0.69260
C         47.75536        41.64737         0.93816
C         46.44180        42.33420         1.22288
C         47.71864        44.52496         1.15818
C         46.47895        43.83564         1.11133
C         47.73675        45.94548         1.39591
C         46.47258        46.65633         1.49879
C         47.41814        48.91827         2.10935
C         46.37221        48.09896         1.64400
C         47.57577        50.29638         1.78404
C         46.36643        50.97547         1.42505
C         47.62330        53.09205         1.30308
C         46.37879        52.40423         1.26802
C         47.59397        54.49905         1.21972
C         46.39522        55.20239         1.12666
C         49.84318        20.63087        -2.01700
C         48.48982        21.30908        -2.05071
C         49.76391        23.44766        -1.72499
C         48.60840        22.70853        -1.45505
C         49.88959        24.79257        -1.27225
C         48.77452        25.42149        -0.63279
C         50.06457        27.52381        -0.47691
C         48.85109        26.79861        -0.26976
C         50.15547        28.89460        -0.08745
C         48.96998        29.57287         0.41783
C         50.23658        31.75002         0.34511
C         48.98991        30.95519         0.66300
C         50.32505        33.05971         1.14894
C         49.01917        33.81176         1.02085
C         50.27509        35.94655         0.75950
C         49.04093        35.24703         0.91634
C         50.26325        37.36551         0.68513
C         49.02612        38.06708         0.73669
C         50.19548        40.28491         0.49722
C         49.03119        39.53110         1.06742
C         50.19454        41.67192         0.51394
C         48.96662        42.38155         0.84656
C         50.19003        44.50535         0.77160
C         48.95664        43.80040         0.94782
C         50.20205        45.92104         0.92946
C         49.01890        46.57412         1.39411
C         50.22166        48.75792         1.48954
C         49.26545        47.89119         1.91607
C         50.18510        50.20545         1.98016
C         48.85004        50.94778         1.72163
C         50.10670        52.99772         1.22391
C         48.87111        52.33748         1.42793
C         50.95316        21.33603        -2.24850
C         52.18020        23.52603        -2.49197
C         50.85130        22.81030        -2.56768
C         52.26949        24.85136        -2.00556
C         51.11400        25.51144        -1.44897
C         52.44191        27.57933        -1.16189
C         51.20888        26.86734        -1.02659
C         52.53025        28.94855        -0.75645
C         51.37800        29.58090        -0.21109
C         52.71943        31.72013         0.05581
C         51.51696        30.91402         0.48093
C         52.74291        33.12128         0.31642
C         51.55585        33.83218         0.71434
C         52.72445        35.99930         0.46289
C         51.53258        35.25077         0.66405
C         52.69661        37.40485         0.29269
C         51.46192        38.08138         0.39663
C         52.66321        40.29489        -0.13693
C         51.36651        39.51838         0.08454
C         52.64372        41.74405         0.09428
C         51.42726        42.40999         0.31074
C         52.63529        44.56576         0.42315
C         51.41427        43.83381         0.48485
C         52.62173        45.99712         0.55484
C         51.39764        46.67075         0.74798
C         52.65289        48.84715         0.99016
C         51.33808        48.18675         0.64673
C         52.64533        50.22097         1.30953
C         51.39754        50.94641         1.46573
C         51.32527        52.30646         1.20772
C         54.55671        23.54482        -3.02011
C         53.32198        22.90744        -3.02463
C         54.68688        24.86418        -2.53351
C         53.52161        25.53992        -2.06244
C         54.83183        27.61533        -1.77267
C         53.60199        26.90950        -1.65277
C         54.90062        29.01644        -1.44426
C         53.75556        29.67146        -0.91627
C         55.00312        31.82988        -0.79327
C         53.82830        31.08107        -0.54035
C         55.08625        33.19427        -0.42451
C         53.94721        33.84511         0.08970
C         55.19614        36.03515        -0.03777
C         54.03804        35.27579         0.55230
C         55.17308        37.44823        -0.06624
C         53.93150        38.15553         0.06904
C         55.14194        40.29696        -0.16712
C         53.92993        39.55395        -0.03222
C         55.11173        41.75456        -0.10905
C         53.88903        42.45048         0.08373
C         55.10149        44.59842         0.24345
C         53.87489        43.87756         0.24062
C         55.09208        46.02329         0.43658
C         53.86949        46.72056         0.56717
C         55.11239        48.83663         0.96352
C         53.87311        48.13998         0.83221
C         55.08170        50.22137         1.27658
C         53.89113        50.89291         1.44873
C         57.19540        24.83090        -2.70590
C         55.95529        25.55606        -2.54960
C         57.22598        27.68677        -2.45906
C         55.98532        26.93237        -2.25665
C         57.31851        29.07168        -1.97095
C         56.13391        29.72663        -1.59182
C         57.47779        31.83989        -1.27984
C         56.13101        31.22973        -1.58160
C         57.52873        33.22183        -0.93843
C         56.33741        33.92050        -0.58771
C         57.60398        36.05748        -0.57815
C         56.37243        35.33147        -0.39096
C         57.60622        37.47542        -0.52159
C         56.37459        38.18243        -0.33792
C         57.56871        40.36333        -0.79199
C         56.34562        39.60306        -0.35904
C         57.58308        41.80150        -0.32563
C         56.34048        42.48204        -0.12751
C         57.57499        44.60983         0.12583
C         56.33455        43.89594         0.08158
C         57.56967        46.02367         0.35229
C         56.33937        46.73342         0.51468
C         57.61096        48.80564         0.83491
C         56.35667        48.13144         0.77149
C         58.41573        25.43302        -2.65049
C         59.77073        27.57823        -2.30106
C         58.53308        26.89264        -2.67925
C         59.78069        28.91786        -2.03174
C         58.58907        29.71350        -1.91041
C         59.90715        31.80113        -1.42878
C         58.65715        31.11331        -1.53484
C         59.96637        33.14803        -1.16510
C         58.78724        33.91464        -0.93564
C         60.04567        36.07291        -0.78382
C         58.82146        35.33268        -0.76214
C         60.06207        37.43966        -0.68241
C         58.85295        38.20368        -0.59554
C         60.05371        40.38401        -0.50853
C         58.85843        39.61376        -0.56296
C         60.03187        41.75492        -0.41029
C         58.80017        42.49505        -0.26876
C         60.02504        44.65879         0.04344
C         58.80917        43.91938        -0.02858
C         60.02471        46.01711         0.26214
C         58.80371        46.72752         0.42433
C         58.79602        48.12948         0.66204
O         41.16955        22.60135         2.70208
O         51.84199        39.85280        -1.26943
O         36.39165        48.28635        -2.20175
O         24.44760        38.54254        -2.92970
O         42.17894        29.05805         3.02166
O         41.86091        46.29158         2.33357
O         29.20604        29.91329        -1.59921
O         36.50467        34.70801         1.69726
O         57.81419        27.51887        -3.79072
O         45.73537        23.53808         1.68578
O         41.88414        16.90158         1.01447
O         34.12696        25.85995         2.54049
O         40.01065        20.32026         2.82911
O         32.08827        22.46324        -0.31555
O         41.12293        27.06722        -0.08784
O         48.38181        48.32856         2.92748
O         37.36577        37.35051        -1.74734
O         32.82169        40.88022         1.24881
O         42.98746        52.79270         2.31211
O         37.31091        24.77644        -0.39063
O         43.00124        35.67921        -1.33276
H         42.18803        36.03569        -1.75094
O         43.23238        26.77014         2.96125
H         42.80020        27.36409         3.61586
O         31.92632        47.80349        -3.18352
H         31.13130        47.32406        -3.50106
O         33.23000        31.39711        -1.85813
H         32.69554        32.10453        -2.29329
O         32.45916        27.81178         2.63374
H         32.81165        27.07826         3.19241
O         41.36928        31.38223         3.23103
H         41.86348        30.69095         3.73609
O         48.07238        19.93260        -0.13610
H         47.40288        19.41426         0.35843
O         40.61369        40.36651        -1.80402
H         39.79898        40.77800        -2.16652
O         33.99696        43.96220         1.48365
H         33.37838        43.26639         1.79804
O         42.81176        33.49883         2.89220
H         42.13785        32.91950         3.33231
O         51.05322        48.50825        -0.75940
H         51.76723        48.11244        -1.30248
O         54.34051        35.19794         2.00668
H         55.20049        34.73429         2.09708
O         45.65760        41.94259        -1.00671
H         44.92267        41.59433        -1.55377
O         24.01202        30.65385        -1.88508
H         24.07029        31.53058        -2.32112
O         39.78193        54.67089        -2.76842
H         40.68923        55.01048        -2.92269
O         49.23397        39.54090         2.53989
H         49.05841        40.45469         2.85144
O         50.40765        22.90197        -3.97438
H         50.38435        23.85334        -4.21220
O         37.50259        19.93882         3.30379
H         38.36757        19.71799         3.72161
O         45.50638        31.78146         3.15081
H         46.34458        32.25799         3.33548
O         38.70474        51.22308         1.60393
H         38.61484        50.35425         2.05134
O         50.46376        32.79979         2.56825
H         51.12046        32.07145         2.68562
O         33.91142        52.50279         0.64247
H         33.05117        52.06821         0.82417
O         43.63386        26.95593        -0.64198
H         44.33592        26.58535        -1.21620
O         39.31703        33.42467        -1.24788
H         39.65833        32.50985        -1.34744
O         46.12379        42.04934         2.62055
H         46.73694        42.56444         3.18506
O         50.33728        50.17242         3.43681
H         49.60993        49.60145         3.77954
O         48.07895        21.46884        -3.42952
H         48.81201        21.94962        -3.89188
O         55.84824        31.60930        -2.99198
H         56.54289        31.19249        -3.54643
O         31.87084        33.91434        -2.06087
H         31.03734        34.30894        -2.39726
O         36.67869        39.76591        -2.22754
H         37.13491        38.99078        -2.63700
O         50.13351        32.15666        -1.04234
H         50.04971        31.35004        -1.59321
O         29.16105        26.26954        -1.28181
H         28.32968        25.80893        -1.52238
O         57.44956        40.45124        -2.27179
H         58.23968        40.93710        -2.59210
O         41.97949        50.83854        -1.33475
H         41.94293        49.89393        -1.60066
O         43.57824        55.45791         2.64265
H         43.35619        54.54970         2.96513
O         46.43816        35.48135         2.70518
H         45.60805        35.04339         2.99656
O         46.70839        38.12446        -1.17070
H         45.86688        38.47456        -1.53422
O         31.50408        34.85503         1.48235
H         31.49434        35.71671         1.94909
O         42.63946        31.55639        -0.23430
H         42.82087        30.63303        -0.51002
O         51.71407        30.58137         1.89979
H         52.50067        29.99890         1.96008
H         22.03556        26.99346         1.10483
H         22.03192        29.33242         0.32823
H         22.05437        31.24394         0.25249
H         22.14358        33.65337         0.11464
H         22.10115        35.39291        -0.78441
H         22.12556        37.66735        -1.64237
H         22.14700        39.67028        -1.87779
H         22.14234        42.06581        -1.47845
H         22.14268        43.94653        -1.41590
H         22.16991        46.39583        -1.45941
H         25.34972        23.62920         1.68726
H         23.25411        24.90534         1.60052
H         25.52693        49.77001        -1.50851
H         23.40726        48.52838        -1.50294
H         26.97111        22.69598         1.89834
H         27.18098        50.71519        -1.49497
H         29.03750        21.39669         1.84956
H         29.30294        51.90396        -1.54541
H         32.85942        19.19115         1.87460
H         30.73511        20.34612         1.87000
H         33.01160        54.03524        -1.71390
H         31.01012        52.74975        -2.17418
H         34.44935        18.19109         1.41623
H         34.69041        55.00157        -1.38370
H         36.52292        16.99085         1.08070
H         36.84378        56.13681        -1.60972
H         39.81896        15.24799        -0.96991
H         37.95526        16.32322         0.13636
H         40.58724        58.32458        -1.07891
H         38.60277        57.09902        -1.79791
H         42.14808        15.41324        -1.91549
H         42.94462        58.36411        -0.32153
H         44.17213        16.70709        -2.28999
H         44.75579        57.35781         0.95672
H         47.86477        18.80049        -2.85311
H         45.71736        17.68711        -2.65070
H         48.52670        55.07741         1.25630
H         46.43652        56.29903         1.08641
H         49.89576        19.55464        -1.79571
H         50.12068        54.06734         0.97871
H         51.94185        20.85474        -2.22275
H         52.22874        52.85409         0.90234
H         55.42675        23.02232        -3.43922
H         53.24348        21.90017        -3.45636
H         56.01926        50.77846         1.40204
H         53.90808        51.95609         1.72498
H         57.15349        23.73294        -2.73669
H         57.64407        49.88701         1.02101
H         59.33266        24.82844        -2.58852
H         60.69962        26.99350        -2.23020
H         60.74853        29.38598        -1.80569
H         60.84673        31.26224        -1.60755
H         60.94996        33.63600        -1.14439
H         61.00175        35.54211        -0.88530
H         61.03028        37.95730        -0.71231
H         61.02942        39.87805        -0.50569
H         60.99076        42.28677        -0.36752
H         60.98855        44.14633        -0.07474
H         60.97446        46.56846         0.31664
H         59.75310        48.66837         0.71227
