         252
 CSIRO Nanostructure Databank - Neutral Graphene Oxide Data Set
C         30.84592        31.93857         2.75837
C         30.92436        33.21762         2.71406
C         30.69129        36.34707         1.84243
C         30.58909        37.46435         1.32210
C         30.61757        40.71864         0.80780
C         30.63486        41.94919         0.71227
C         32.84268        29.16771         1.33751
C         31.80148        29.71331         1.80883
C         33.08781        31.77762         1.89807
C         31.75962        31.08204         2.15978
C         33.15650        33.31013         1.97355
C         31.88341        34.05064         2.19178
C         32.99237        36.05319         1.01731
C         31.73168        35.35244         1.55319
C         32.96454        37.56482         0.93098
C         31.63647        38.28272         0.69559
C         32.96771        40.49068         0.26227
C         31.65907        39.74862         0.46985
C         32.96984        41.89190         0.07162
C         31.86252        42.81938         0.69992
C         32.87023        44.49112        -0.68632
C         31.82530        44.08107        -0.14798
C         35.39870        27.45844         0.63877
C         35.28447        28.89681         0.71178
C         34.12418        29.61169         1.01299
C         35.49606        31.75677         0.99758
C         34.10454        31.14712         0.93101
C         35.65347        33.23160         1.42875
C         34.33889        34.00929         1.39614
C         35.56899        36.09283         0.82920
C         34.30208        35.34261         1.10525
C         35.54358        37.57812         0.57099
C         34.23048        38.33419         0.66501
C         35.44204        40.38882        -0.10361
C         34.15186        39.72120         0.15423
C         35.40935        41.82589        -0.54649
C         34.03108        42.39642        -0.89501
C         35.17023        44.44160        -1.80459
C         34.07513        43.92264        -1.16533
C         35.56628        45.80540        -2.07906
C         37.76359        27.27945         0.14524
C         36.44875        26.82059         0.46871
C         37.68455        28.77586        -0.07767
C         36.52062        29.55883         0.46058
C         37.95471        31.63423         0.60354
C         36.59934        30.99190         0.65000
C         38.01686        33.14293         0.57983
C         36.76098        33.92655         0.65521
C         37.89848        36.00614        -0.11074
C         36.76162        35.29574         0.41261
C         37.91410        37.41850        -0.33801
C         36.70473        38.23331        -0.10577
C         37.92302        40.36360        -0.64822
C         36.65570        39.57684        -0.37863
C         37.83185        41.61962        -1.55932
C         36.54045        42.39505        -1.31529
C         38.24303        44.73495        -1.87601
C         36.31986        43.55005        -1.99578
C         38.01266        46.07554        -1.66017
C         36.64798        46.40442        -1.98431
C         40.17877        24.45312         0.30334
C         39.18267        25.19122         0.37999
C         40.24562        27.20190        -0.25214
C         38.93762        26.58302         0.16543
C         40.22133        28.64735        -0.67391
C         38.96640        29.46863        -0.43636
C         40.36111        31.60400        -0.40495
C         39.13519        30.88311         0.04493
C         40.38663        33.01296        -0.47957
C         39.21704        33.80911        -0.01999
C         40.30257        35.85581        -1.09849
C         39.07071        35.19962        -0.54994
C         40.31378        37.34764        -1.17751
C         39.06457        38.06022        -0.84872
C         40.39504        40.28010        -1.19749
C         39.06816        39.49702        -1.13182
C         40.28843        41.74774        -0.96769
C         39.14008        42.42098        -1.25549
C         40.36092        44.58515        -0.62279
C         39.04388        43.89260        -0.89925
C         40.28689        46.07622        -0.49444
C         39.02203        46.83697        -0.88412
C         40.35876        48.87679        -0.66175
C         39.36420        48.25649        -1.06722
C         42.78305        24.37649        -0.03992
C         41.56192        25.00968         0.55135
C         42.71651        27.13284        -0.34495
C         41.55530        26.48399        -0.04499
C         42.72110        28.66038        -0.20737
C         41.54947        29.37519        -0.94376
C         42.76231        31.55912        -0.68706
C         41.53879        30.86491        -0.63411
C         42.78597        32.96197        -0.77045
C         41.58299        33.68421        -0.80882
C         42.85349        35.86039        -0.74151
C         41.63800        35.12549        -1.29490
C         42.97136        37.36948        -0.90675
C         41.63884        38.09828        -1.06382
C         42.70342        40.21646        -0.26765
C         41.62500        39.56260        -0.80139
C         42.78951        41.73063        -0.35728
C         41.39162        42.36819        -0.13290
C         42.71788        44.52500         0.18673
C         41.46244        43.87456        -0.27754
C         42.74332        46.01558         0.24871
C         41.61046        46.79856        -0.38134
C         42.83785        48.76092         0.32945
C         41.71617        48.33176        -0.50567
C         43.81900        25.01466        -0.26514
C         45.29258        27.11506        -0.41127
C         44.03303        26.38119        -0.79896
C         45.31264        28.58815        -0.67445
C         44.01850        29.33496        -0.63353
C         45.32625        31.54113        -0.36896
C         44.02588        30.81973        -0.42827
C         45.36940        33.00111        -0.69865
C         44.06527        33.71976        -0.81096
C         45.18683        35.76896         0.23814
C         43.99632        35.17299        -0.49897
C         45.21040        37.28823         0.30359
C         43.89580        37.97493         0.14165
C         45.03851        40.18132         0.75467
C         43.82200        39.47311         0.34931
C         45.01245        41.58891         0.88489
C         43.85142        42.31736         0.55606
C         44.93332        44.46695         1.35945
C         43.63661        43.71110         1.11003
C         44.86953        45.86570         1.51695
C         43.59756        46.65029         1.37108
C         43.70441        48.08849         0.90157
C         47.78137        27.22799        -0.28622
C         46.61983        26.70740        -0.36331
C         47.91310        28.60363        -1.00416
C         46.63321        29.31301        -0.54312
C         47.84683        31.60712        -0.82823
C         46.63529        30.79452        -0.40357
C         47.77822        33.00928        -0.22275
C         46.61288        33.70204        -0.27870
C         47.65882        35.83716         0.55945
C         46.53787        35.21599        -0.24443
C         47.63480        37.31341         0.74726
C         46.33059        37.97577         0.70031
C         47.45328        40.12446         1.56360
C         46.14409        39.34992         1.36493
C         47.43735        41.61338         1.50010
C         46.22156        42.30406         1.34116
C         47.38876        44.41648         1.80359
C         46.16164        43.73494         1.49443
C         47.20616        45.80851         1.95323
C         46.12429        46.43068         1.83776
C         50.43899        28.92229        -0.57054
C         49.13693        29.42467        -0.66693
C         50.35821        31.59436        -0.48305
C         49.15471        30.85394        -0.59669
C         50.25021        33.13414        -0.50052
C         49.05454        33.57275         0.36394
C         50.19013        35.89098         0.70756
C         48.95861        35.07849         0.66903
C         50.10029        37.28516         0.96943
C         48.81133        37.96915         1.06061
C         50.02295        40.21905         1.38254
C         48.78099        39.40814         1.46509
C         49.97268        41.62798         1.61655
C         48.68509        42.30563         1.68454
C         49.89959        44.29615         2.02575
C         48.61819        43.72412         1.85836
C         51.54321        29.53173        -0.47308
C         52.78256        31.81167        -0.38898
C         51.64334        30.93296        -0.42116
C         52.60725        33.03811        -0.13967
C         51.50891        33.88580        -0.02284
C         52.54149        36.09135         0.63222
C         51.43794        35.21264         0.43718
C         52.45230        37.31388         0.88826
C         51.28985        38.09367         1.06184
C         52.35778        40.37427         1.31757
C         51.24563        39.50811         1.23260
C         52.37930        41.61181         1.52739
C         51.21865        42.39001         1.72058
C         51.03602        43.77587         1.95497
O         39.06889        33.72586         1.43305
O         46.83056        29.94476         0.75691
O         48.04538        35.20978         1.81980
O         33.66299        38.19757         2.03370
O         33.59261        32.42934         3.08353
O         31.40222        38.81016        -0.62178
O         37.39749        44.05204        -2.77134
O         41.04766        37.79542        -2.36626
O         40.06158        27.60777        -1.67505
O         38.92303        31.00289         1.49605
O         37.96851        29.24633        -1.46732
O         39.24704        46.43957         0.50720
O         43.48969        45.30839        -0.77902
O         44.56837        28.93100        -1.92053
O         48.12784        39.63496         2.77801
O         43.29145        38.46224         1.34670
O         32.06749        35.35896         0.12694
O         35.93056        37.04794         1.88466
O         39.70309        39.85063        -2.38874
O         44.88154        33.41532        -2.01909
O         35.69190        41.54292         0.84985
O         42.06003        47.48176        -1.60489
O         44.58629        31.25417         0.86187
O         39.29669        35.27895        -2.01010
O         42.51229        28.94642         1.18945
H         43.29439        28.66808         1.71034
O         47.72906        31.79625        -2.25943
H         48.40526        32.46634        -2.52021
O         45.03077        35.31369         1.60729
H         44.42018        35.91846         2.08024
O         49.97217        33.54914        -1.86160
H         50.76396        33.36267        -2.41012
O         41.73728        25.16383         1.93840
H         41.80886        24.28032         2.35440
O         45.65894        39.01207         2.69612
H         46.45616        38.89166         3.26541
O         38.32241        40.82650         0.68282
H         37.52337        41.26268         1.08152
O         36.12792        33.21159         2.79706
H         35.39847        32.85873         3.36010
O         33.73305        41.79667        -2.19121
H         32.81548        42.03790        -2.44130
O         49.25612        32.91402         1.63087
H         48.62735        33.31542         2.27309
O         32.24409        43.14046         2.00517
H         31.54546        43.67920         2.42871
O         46.73196        35.63900        -1.61278
H         46.10154        35.12673        -2.17353
O         47.86201        28.38937        -2.39975
H         48.70812        27.99625        -2.69760
O         33.56945        31.48727        -0.38576
H         34.09023        31.01372        -1.06869
O         41.01396        42.06444         1.24443
H         40.03856        41.90765         1.27772
O         41.84938        35.06551        -2.72846
H         40.97067        34.91061        -3.14378
O         43.20505        42.05429        -1.71497
H         42.65788        41.53837        -2.34471
O         42.83553        46.59775         2.56625
H         43.42156        46.75159         3.33546
O         41.80473        29.31385        -2.35393
H         41.34989        28.51083        -2.70402
O         37.76197        41.20912        -2.92877
H         37.71371        42.01723        -3.48408
O         43.67226        37.55651        -2.16108
H         43.07609        37.21989        -2.86966
O         43.98105        26.32635        -2.22580
H         44.16387        27.23386        -2.57247
O         42.99107        43.57751         2.40336
H         42.20922        42.97889         2.29394
O         38.27731        43.91750         0.34626
H         38.39124        44.81722         0.74792
