         671
 CSIRO Nanostructure Databank - Neutral Graphene Oxide Data Set
C          5.90228        31.84886         0.26886
C          5.92016        33.20929         0.38982
C          8.23194        27.48770        -0.05339
C          8.29537        28.89650         0.12450
C          7.10073        29.67759         0.20489
C          8.35372        31.77781         0.51237
C          7.11746        31.07517         0.32877
C          8.38177        33.16863         0.64031
C          7.15392        33.93002         0.58334
C          8.39895        36.03512         0.94046
C          7.17926        35.31520         0.70976
C          8.40248        37.42867         1.02653
C         10.60507        23.07327        -0.51821
C         10.23660        24.31831        -0.03316
C          9.19091        25.26133        -0.32417
C         10.68413        27.39367        -0.46531
C          9.36839        26.65724        -0.13653
C         10.75657        28.85641        -0.00729
C          9.55949        29.56094         0.21682
C         10.85512        31.72384         0.38872
C          9.60517        30.97225         0.75672
C         10.87509        33.15513         0.58940
C          9.63147        33.88490         0.81734
C         10.89510        35.98688         1.25524
C          9.62755        35.26718         1.02092
C         10.95083        37.49100         1.26526
C          9.60592        38.23872         1.24328
C         10.80047        40.37578         0.78694
C          9.61595        39.68794         0.97712
C         10.89096        41.80122         0.81600
C         13.18319        18.81354         0.20034
C         13.23119        20.30216        -0.10051
C         12.00100        21.03588        -0.35056
C         13.16324        23.17666        -0.14062
C         11.90399        22.42409        -0.28263
C         13.25323        24.53912         0.04312
C         12.12477        25.42527         0.27696
C         13.23540        27.42016        -0.72291
C         12.00997        26.69329        -0.20688
C         13.31618        28.83035        -0.07061
C         11.98318        29.56432        -0.04628
C         13.28517        31.69769        -0.13653
C         12.00536        30.99124         0.09132
C         13.30556        33.22542         0.05069
C         12.06958        33.86402         0.49072
C         13.36238        36.03987         0.52916
C         12.17036        35.26129         0.92567
C         13.29343        37.43844         0.34440
C         12.14442        38.16655         0.72635
C         13.20358        40.35851        -0.13323
C         12.01326        39.60446         0.38707
C         13.20763        41.88439        -0.24249
C         12.05529        42.52749         0.51801
C         13.32844        44.64571         0.48392
C         12.12893        43.91684         0.71585
C         13.36855        46.04181         0.59774
C         15.75077        14.59045        -0.49097
C         15.71897        16.00108        -0.45842
C         14.50202        16.71482        -0.26555
C         15.72349        18.80173        -0.10679
C         14.49497        18.09564        -0.08937
C         15.71685        20.25214         0.33496
C         14.42630        20.95776        -0.05900
C         15.68841        23.08449         0.16203
C         14.45386        22.41154        -0.46348
C         15.80118        24.54195        -0.27865
C         14.52493        25.27666         0.00834
C         15.84366        27.37753        -0.73674
C         14.52724        26.72773        -0.31932
C         15.85050        28.88126        -0.45968
C         14.52346        29.61475        -0.64025
C         15.78220        31.77015        -0.17108
C         14.54531        30.98721        -0.03331
C         15.81050        33.09710         0.54726
C         14.56848        33.90670         0.32384
C         15.84031        35.98975         0.39477
C         14.59108        35.30299         0.42282
C         15.87018        37.38243        -0.16633
C         14.52180        38.12806        -0.17298
C         15.77213        40.37601         0.03137
C         14.52386        39.63170        -0.23583
C         15.77444        41.76825         0.05951
C         14.54714        42.53617         0.02650
C         15.79382        44.66012         0.13785
C         14.56527        43.92345         0.20299
C         15.81910        46.04791         0.24992
C         14.57831        46.77406         0.44820
C         15.80960        48.90516         0.29734
C         14.59828        48.17481         0.45184
C         15.81434        50.30469         0.24720
C         18.13858        10.23451        -0.54387
C         17.74797        11.50018        -1.00288
C         16.84339        12.43634        -0.48535
C         18.16202        14.58624        -0.99208
C         16.93253        13.85703        -0.72699
C         18.17499        16.00222        -0.79694
C         16.95552        16.71418        -0.53881
C         18.20330        18.84633        -0.36026
C         16.94348        18.12579        -0.34240
C         18.21399        20.24169        -0.26946
C         16.97870        20.99047        -0.08334
C         18.20977        23.13894        -0.55613
C         16.97283        22.34959        -0.16272
C         18.25318        24.53355         0.06220
C         16.96785        25.25861         0.40113
C         18.27975        27.36467        -0.05727
C         17.00866        26.69071        -0.08227
C         18.34348        28.87497        -0.20710
C         17.02980        29.56103        -0.35177
C         18.42573        31.74944        -0.20137
C         17.07647        31.04394        -0.36193
C         18.29077        33.17855         0.28110
C         17.11027        33.85011         0.40765
C         18.27390        36.05471         0.49585
C         17.07664        35.30573         0.47135
C         18.22988        37.48641         0.52490
C         17.04930        38.17516         0.34626
C         18.27780        40.36185         0.44234
C         16.95784        39.65006         0.62935
C         18.25873        41.80559         0.24643
C         17.03861        42.47859         0.13883
C         18.31191        44.66202         0.02779
C         17.03621        43.92580        -0.27999
C         18.31050        46.06561         0.07671
C         17.06243        46.78125         0.15404
C         18.29491        48.92177         0.12809
C         17.06341        48.18711         0.19109
C         18.28329        50.33103         0.12001
C         17.02606        51.04036         0.14071
C         18.23038        53.17601         0.02206
C         17.01908        52.44249         0.06102
C         18.24062        54.58050        -0.11488
C         20.74323         6.20880         0.09214
C         20.66504         7.47765        -0.50980
C         19.48259         8.23011        -0.50278
C         20.58421        10.31304        -1.26080
C         19.38849         9.60439        -0.87548
C         20.67119        11.73646        -1.33943
C         19.51839        12.53863        -1.52623
C         20.68089        14.58265        -1.10332
C         19.43836        13.91314        -1.20327
C         20.68092        16.07625        -1.27073
C         19.40993        16.74170        -0.80562
C         20.69492        18.84078        -0.49421
C         19.43465        18.11518        -0.55027
C         20.69622        20.22272        -0.37778
C         19.46337        20.96135        -0.33291
C         20.72787        23.06740        -0.17994
C         19.48441        22.36205        -0.32481
C         20.69553        24.54803        -0.06052
C         19.41229        25.20057         0.24486
C         20.67004        27.42169         0.66494
C         19.37381        26.65515         0.70113
C         20.67274        28.79099         0.73806
C         19.50647        29.59061         0.40069
C         20.64448        31.72252         1.05006
C         19.50616        30.96797         0.52573
C         20.70252        33.09932         0.97651
C         19.58811        33.88418         0.40896
C         20.75959        36.06230         1.19033
C         19.58629        35.37624         0.56431
C         20.56435        37.54791         1.50765
C         19.56648        38.17507         0.50164
C         20.73479        40.35287         0.58648
C         19.45623        39.67764         0.60608
C         20.81380        41.76623         0.05037
C         19.49847        42.51786         0.11968
C         20.79566        44.64631         0.03687
C         19.53107        43.92378         0.06090
C         20.79026        46.09624        -0.06445
C         19.55065        46.79881         0.04759
C         20.78423        48.93283         0.01476
C         19.54949        48.21472         0.06099
C         20.78929        50.36092         0.13207
C         19.51608        51.07382         0.14023
C         20.68477        53.29276         0.47116
C         19.47788        52.46506         0.11427
C         20.71847        54.63587        -0.23262
C         19.44589        55.31250        -0.32673
C         20.58739        57.37046        -1.02310
C         19.40647        56.67602        -0.65388
C         20.55860        58.73250        -1.39078
C         23.21262         3.51730         0.85767
C         22.01463         4.19898         0.75888
C         23.18844         6.10111        -0.27015
C         21.96599         5.50014         0.18360
C         23.17643         7.42031        -0.82399
C         21.88584         8.05640        -1.09418
C         23.15433        10.27413        -1.34543
C         21.85648         9.57384        -1.42006
C         23.15524        11.71996        -1.25351
C         21.92278        12.43432        -1.23844
C         23.15493        14.57923        -1.07662
C         21.90864        13.86479        -1.15892
C         23.15322        16.00210        -0.91093
C         21.96517        16.72590        -0.82518
C         23.17112        18.79114        -0.22896
C         21.96729        18.12991        -0.54162
C         23.20291        20.21845        -0.03374
C         22.00041        20.97287        -0.54403
C         23.12758        23.04952         0.54919
C         21.92456        22.39824        -0.08319
C         23.21246        24.53707         0.34795
C         21.95008        25.28598         0.23826
C         23.22504        27.34436         1.04601
C         21.90263        26.63260         0.87421
C         23.19344        28.81042         1.06723
C         21.85553        29.43910         1.42904
C         23.18106        31.69697         1.24290
C         21.87904        30.96420         1.41664
C         23.17063        33.17336         1.17481
C         21.87513        33.84188         1.59494
C         23.17177        36.03300         2.02375
C         21.89764        35.36894         1.45839
C         23.18893        37.58968         1.71084
C         21.88645        38.31079         1.50343
C         23.16255        40.34591         0.58436
C         21.87921        39.67806         0.91435
C         23.20523        41.81618         0.83419
C         21.87926        42.56343         0.80682
C         23.25943        44.63799         0.13877
C         21.98918        43.96952         0.25387
C         23.19474        45.96129        -0.63107
C         21.99984        46.79582        -0.20012
C         23.24746        48.94212        -0.24023
C         22.01946        48.21872        -0.14636
C         23.24741        50.36960        -0.05075
C         22.00837        51.06030         0.20359
C         23.27681        53.30082         0.10506
C         22.01088        52.53091         0.42094
C         23.19975        54.63871        -0.52216
C         21.89544        55.28389        -0.60660
C         22.96416        57.26845        -1.63848
C         21.82601        56.64434        -1.09772
C         22.93112        58.63130        -2.00265
C         21.71904        59.38420        -1.84769
C         22.85870        61.37145        -2.69530
C         21.71238        60.76522        -2.21180
C         24.40746         4.09658         0.37871
C         25.66173         5.93207        -0.79457
C         24.40553         5.37327        -0.17362
C         25.64366         7.43441        -0.96249
C         24.37279         8.12052        -1.10178
C         25.65211        10.27126        -1.54666
C         24.34671         9.53449        -1.32446
C         25.61982        11.66271        -0.96092
C         24.36935        12.44214        -1.14368
C         25.64031        14.55769        -0.85643
C         24.38530        13.85275        -1.05068
C         25.68162        15.92350        -0.69368
C         24.46110        16.75310        -1.00726
C         25.62127        18.72308        -0.03861
C         24.44185        18.09534        -0.32283
C         25.59391        20.04771         0.69731
C         24.37540        20.87159         0.30175
C         25.61163        23.02478         0.34918
C         24.43168        22.32062         0.34257
C         25.64297        24.48886         0.13956
C         24.39198        25.23576         0.37192
C         25.63285        27.38806         0.52141
C         24.44452        26.66144         0.58033
C         25.62142        28.78464         0.77955
C         24.37443        29.49810         0.89568
C         25.66907        31.68120         0.90987
C         24.36280        30.98621         0.61676
C         25.65146        33.12832         1.08345
C         24.38654        33.84654         1.21389
C         25.68534        35.72640         1.92757
C         24.43262        35.23823         1.60883
C         25.64093        37.83758         1.65539
C         24.43781        38.25676         1.19544
C         25.78415        40.33156         0.26962
C         24.43535        39.58174         0.49228
C         25.77260        41.83411         0.50621
C         24.49498        42.54795         0.74101
C         25.72352        44.70887         0.46913
C         24.44201        43.98577         0.41130
C         25.73154        46.12344        -0.00594
C         24.54238        46.74480        -0.74757
C         25.70115        48.90283        -0.37675
C         24.49717        48.22710        -0.38810
C         25.66806        50.36703        -0.65840
C         24.47420        51.07412        -0.09777
C         25.79299        53.23545        -0.64219
C         24.54452        52.51500        -0.02934
C         25.58448        54.54369        -1.24007
C         24.31569        55.18837        -1.16952
C         25.40645        57.18445        -2.29780
C         24.13201        56.40873        -2.04475
C         25.33329        58.54337        -2.61041
C         24.11512        59.28271        -2.50757
C         24.05545        60.64520        -2.84068
C         26.84069         8.11135        -1.00671
C         28.11995        10.20785        -1.05987
C         26.91558         9.53323        -1.15749
C         28.20259        11.64307        -1.00925
C         26.91932        12.36375        -0.78720
C         28.15651        14.47024        -0.38097
C         26.95540        13.83941        -1.08193
C         28.15512        15.96952        -0.53352
C         26.94011        16.62200        -0.55056
C         28.17354        18.71151         0.00160
C         26.90411        18.12969        -0.57015
C         28.19830        20.13686         0.39213
C         26.90495        20.85975         0.63363
C         28.18859        23.08843         0.26467
C         26.91174        22.34321         0.47952
C         28.19901        24.50203         0.30468
C         26.93324        25.23425         0.05193
C         28.09412        27.30055         0.93485
C         26.94838        26.76040         0.07365
C         28.08095        28.81021         0.85820
C         26.87532        29.50548         0.86170
C         28.09267        31.68630         1.43015
C         26.83976        30.95654         0.98067
C         28.13269        33.07394         0.77311
C         26.87313        33.82113         1.12534
C         28.16784        35.95544         1.38533
C         26.94111        35.19433         1.47240
C         28.18269        37.48493         1.54699
C         26.92042        38.17799         0.94735
C         28.27696        40.35741         0.80182
C         26.94581        39.71444         1.05934
C         28.28767        41.80253         0.34217
C         26.96815        42.53056         0.52535
C         28.22526        44.67663         0.48259
C         27.00232        43.97020         0.52360
C         28.27331        46.09260         0.31540
C         27.06754        46.76764        -0.19912
C         28.14674        49.09537         0.24986
C         27.03397        48.24466        -0.35687
C         28.19495        50.39531        -0.53743
C         26.99377        51.07908        -0.63191
C         28.05848        53.06630        -1.65644
C         26.95635        52.44275        -1.04675
C         27.92567        54.39704        -2.07215
C         26.70107        55.12077        -1.93781
C         26.61474        56.46903        -2.37250
C         29.38438        12.36389        -1.03775
C         30.60753        14.51771        -0.92284
C         29.43842        13.79436        -0.83790
C         30.66125        15.95584        -0.72684
C         29.42275        16.67577        -0.55336
C         30.66856        18.79355        -0.34671
C         29.44325        18.06183        -0.40367
C         30.66888        20.19642        -0.14321
C         29.35596        20.93032        -0.19058
C         30.63565        23.06914         0.24086
C         29.39924        22.38024         0.21411
C         30.64566        24.48420         0.41213
C         29.41549        25.20867         0.43403
C         30.61923        27.34805         0.56540
C         29.41980        26.64731         0.57950
C         30.63629        28.79899         0.61932
C         29.32881        29.55529         0.49086
C         30.65241        31.67170         0.97472
C         29.39037        30.91081         1.16820
C         30.59472        33.14872         0.98575
C         29.40943        33.84015         1.05962
C         30.67171        35.99414         1.15099
C         29.39479        35.29374         1.16042
C         30.71869        37.45103         1.24163
C         29.41961        38.12887         0.87271
C         30.66141        40.36583         1.36940
C         29.41021        39.64618         1.03017
C         30.70257        41.86553         1.26500
C         29.48378        42.59199         0.81499
C         30.71634        44.73715         0.90676
C         29.46995        43.95124         0.72056
C         30.71374        46.15065         0.45764
C         29.49365        46.82883         0.31917
C         30.71196        48.99408        -0.28101
C         29.52362        48.36383         0.47780
C         30.54610        50.21879        -1.09460
C         29.39101        50.94935        -1.11659
C         29.30648        52.24296        -1.92763
C         31.86403        16.66781        -0.70733
C         33.11422        18.82676        -0.46996
C         31.90846        18.08503        -0.50700
C         33.12079        20.22196        -0.27173
C         31.87469        20.91968        -0.10522
C         33.09106        23.05810         0.12290
C         31.87191        22.35040         0.08321
C         33.09448        24.45632         0.43497
C         31.88966        25.17723         0.54036
C         33.08457        27.33174         0.60492
C         31.88973        26.62710         0.58621
C         33.08292        28.75792         0.12886
C         31.82297        29.50134         0.51423
C         33.05687        31.63584         0.32798
C         31.86803        30.94964         0.51217
C         33.02967        33.12189         0.20080
C         31.81681        33.87922         0.62295
C         33.15348        35.97572         0.93204
C         31.87315        35.31512         0.93999
C         33.23765        37.41320         1.40730
C         31.90469        38.12640         1.26449
C         33.22039        40.34564         1.08287
C         31.94699        39.60238         1.40282
C         33.16184        41.80646         0.82052
C         32.01658        42.52469         1.04331
C         33.34821        44.74306         0.82283
C         32.02652        44.01020         1.05532
C         33.15470        46.06375         0.10442
C         31.97115        46.75365         0.08304
C         31.94060        48.15494        -0.44238
C         34.33382        20.99782        -0.30398
C         35.56615        23.20812        -0.33120
C         34.32845        22.36376        -0.12784
C         35.67618        24.37402         0.68030
C         34.35029        25.12117         0.81638
C         35.65419        27.41185         1.02211
C         34.33401        26.64511         0.94803
C         35.57478        28.84230         0.52968
C         34.35614        29.51601         0.39795
C         35.54540        31.64868         0.40099
C         34.33042        30.93217         0.30351
C         35.51963        33.10993         0.58438
C         34.33570        33.88583         0.05339
C         35.57815        36.01502         0.48440
C         34.31271        35.30520         0.59702
C         35.57056        37.44058         0.41058
C         34.38874        38.17044         0.74241
C         35.54141        40.26398         0.12677
C         34.38781        39.55716         0.62474
C         35.50024        41.67662        -0.02252
C         34.37646        42.47511         0.33654
C         34.39477        43.85608         0.19690
C         36.82642        25.29316         0.30233
C         38.02705        27.42991         0.19612
C         36.83456        26.65515         0.43063
C         38.04551        28.82121         0.29065
C         36.79587        29.55244         0.43837
C         38.03256        31.70826         0.31872
C         36.78665        30.97030         0.40823
C         38.05379        33.10421         0.32925
C         36.82498        33.86398         0.58990
C         38.00098        35.99568         0.00568
C         36.78500        35.31416         0.32418
C         37.96266        37.38591        -0.19351
C         36.76417        38.12867         0.00877
C         36.71564        39.53277        -0.15946
C         39.24976        29.57632         0.11422
C         40.47385        31.72174        -0.08137
C         39.25969        30.96773         0.12436
C         40.47058        33.08559        -0.14570
C         39.25258        33.84336         0.02676
C         39.21571        35.23023        -0.11508
O         26.18248        11.87160         0.37682
O         16.37612        31.65846        -1.52509
O         12.23568        39.80296        -1.07884
O         11.06778        24.85185         0.97692
O         23.92213        42.14394         2.07484
O         32.09568        33.58027        -0.84855
O         30.49433        41.20692         2.56646
O         21.42253        25.25628        -1.14694
O         28.34561        19.10709         1.41365
O         25.58263        53.09714         0.80972
O         19.96337        34.74392        -0.73522
O         22.55142        38.31699         2.82852
O         22.84638        53.08025         1.50304
O         11.73090        35.43925         2.33271
O         30.27971        31.02092         2.30669
O         27.01029        21.69264         1.84096
O         31.33648        44.55095         2.24204
O         34.19865        25.76604         2.13079
O         27.34866        47.41389        -1.53041
O         14.57348        26.30271         1.07745
O         26.26707        24.78505        -1.18999
O         10.37354        37.99815         2.50483
O         25.56922        45.87051         1.41340
O         21.77255         8.55017        -2.46588
O         32.84481        40.02171         2.48474
O         36.09323        33.53160         1.84531
O         23.62818        39.79584        -0.72117
O         29.82728        48.51802         1.88459
O         18.69310        28.00478        -1.33983
O         13.24489        32.62691        -1.29864
O         18.43576        11.94926        -2.16004
O         22.52889        26.66242         2.18458
O         22.70164        31.33613         2.58409
O         14.44019        38.81446        -1.47010
O         25.71963        36.91103         2.69243
O         26.65722        40.01206         2.44966
H         27.38404        39.62334         2.99342
O         18.98735        26.69811         2.10153
H         19.78970        26.57547         2.65270
O         16.04617        24.64323        -1.69088
H         15.61736        23.87983        -2.14695
O         27.21140        27.21238        -1.27589
H         26.74025        26.58666        -1.87510
O         28.12851        32.85100        -0.66437
H         28.26583        33.71268        -1.11052
O         35.48914        23.75211        -1.65639
H         36.25174        24.35515        -1.78284
O          9.67336        30.80164         2.23120
H          8.84169        30.36056         2.50825
O         29.38583        37.90021        -0.56391
H         28.44404        37.77709        -0.84479
O         21.70640        33.65011         3.03180
H         22.38277        34.20531         3.49144
O         29.34729        51.91149        -3.32909
H         28.52782        51.42105        -3.54796
O         27.95324        31.86507         2.85312
H         28.84670        31.72243         3.24943
O         26.77293        37.71488        -0.41920
H         26.39487        38.45474        -0.96524
O         15.44710        23.02105         1.57902
H         16.08138        23.63725         2.02706
O         20.12675        37.95282        -0.82700
H         19.85960        37.06079        -1.14122
O         15.73755        32.70007         1.96729
H         15.65368        33.51456         2.50783
O         19.96998        37.64961         2.81768
H         20.70640        37.72671         3.46606
O         28.47498        41.69934        -1.11672
H         27.71469        41.16905        -1.46007
O         28.26537        37.81738         2.94752
H         27.54199        37.33540         3.41195
O         25.39753        19.68943         2.09597
H         25.83702        20.39183         2.62997
O         18.96990        31.87337        -1.54731
H         18.24231        32.21236        -2.11719
O         24.61308        17.05603        -2.45744
H         24.80155        16.20869        -2.91606
O         18.17318        23.30670        -2.01503
H         18.75575        24.06061        -2.24784
O         24.89227        46.72855        -2.15859
H         25.81869        47.08031        -2.25172
O         15.97867        27.27843        -2.18586
H         16.91955        27.48417        -2.39658
O         21.61623        29.06663         2.82236
H         22.16735        29.67105         3.37220
O         20.66852        16.27347        -2.74353
H         21.54282        15.98863        -3.08591
O         33.88846        45.10137         2.13407
H         33.11082        45.18836         2.73494
O         33.02100        28.66747        -1.34893
H         32.84966        29.57130        -1.69124
O         35.98042        27.57276         2.43476
H         35.54852        26.82653         2.91243
O         23.75707        55.85773        -3.36449
H         23.64368        56.61860        -3.97336
O         33.54781        37.37031         2.83053
H         33.46492        38.29943         3.15792
O         28.99065        20.98242        -1.62003
H         29.71563        21.43344        -2.10259
O         24.12096        31.11298        -0.82181
H         24.93257        30.82738        -1.29249
O         25.82783         5.32630        -2.09956
H         25.01662         5.50566        -2.61876
O         20.43134        53.63036         1.87491
H         21.31854        53.76459         2.28769
O         12.94327        42.19755        -1.64341
H         12.36548        41.47498        -1.98491
O         13.17338        27.49006        -2.15820
H         13.86064        28.12976        -2.47728
O         22.85644        22.91508         2.00047
H         23.63189        23.26727         2.48832
O         16.83810        25.22597         1.84893
H         16.10327        25.84398         2.08177
O         26.94276        18.54307        -1.97511
H         26.14623        18.14634        -2.41265
O         23.12239        35.91429         3.46724
H         22.81033        36.78095         3.82300
O         25.38549        50.42779        -2.14739
H         24.62089        49.83276        -2.31639
O         21.41069        42.67176         2.16964
H         22.20939        42.80771         2.73186
O         31.90575        49.16170         0.60385
H         30.80480        48.66664         1.94919
O         10.54096        27.47073        -1.92150
H         11.44330        27.62374        -2.30726
O         26.09218        40.15512        -1.15507
H         25.22612        40.25546        -1.62597
O         27.59125        49.45368         1.53433
H         28.30975        49.35053         2.20578
O         13.64492        28.66549         1.33009
H         13.01785        28.02719         1.73184
O         22.80375        45.48866        -1.95481
H         23.47774        45.81384        -2.59777
O         28.01055        14.19383         1.03626
H         28.74301        14.63706         1.51243
O         15.71096        20.19407         1.79848
H         16.59136        19.87490         2.08723
O         29.18679        29.84162        -0.94237
H         28.80077        29.04412        -1.36904
O         16.69373        39.71541         2.09144
H         17.49168        39.37100         2.55020
O         14.33674        29.81945        -2.07309
H         15.00161        30.50107        -2.34327
O         34.59220        33.99987        -1.37652
H         33.71378        34.14924        -1.79980
O         16.97814        43.88728        -1.76474
H         17.80325        43.45672        -2.07611
O         35.98424        23.77419         1.95910
H         35.69586        24.40954         2.65166
O         27.20163        13.94728        -2.51569
H         26.62562        13.30326        -2.98010
O         27.78881        26.89891         2.29953
H         28.46091        27.29115         2.89540
O         14.60465        22.41922        -1.91931
H         13.79774        22.01664        -2.30487
O         16.22411        37.12189        -1.57400
H         15.75455        37.81007        -2.10819
O         12.10615        18.18416        -0.50008
H         12.30540        18.20728        -1.45803
O         22.21531        21.05419        -2.00529
H         21.42503        21.48564        -2.39577
O         21.23308        41.69547        -1.33683
H         20.75054        40.95913        -1.76790
O         25.74565        10.50481        -2.99591
H         25.68859         9.63293        -3.44162
H          4.94983        31.31818         0.12376
H          4.98133        33.78070         0.34499
H          7.23608        27.01569        -0.03397
H          6.13248        29.16686         0.09086
H          6.23728        35.88108         0.64988
H          7.46297        37.96642         0.82436
H          9.90103        22.52960        -1.16839
H          8.18608        24.90050        -0.60261
H          8.66881        40.24194         1.06917
H         10.00854        42.35857         1.16910
H         12.96050        18.69247         1.29593
H         11.08374        20.44071        -0.47850
H         11.25022        44.45374         1.10632
H         12.43501        46.59346         0.78627
H         14.81521        14.03826        -0.31627
H         13.55329        16.15925        -0.22668
H         13.65388        48.72919         0.56070
H         14.86148        50.85214         0.30189
H         17.48512         9.70674         0.16670
H         16.04201        12.09304         0.18631
H         16.05987        52.98085         0.04116
H         17.28186        55.11787        -0.17091
H         19.83154         5.75892         0.51290
H         18.57948         7.75676        -0.08818
H         18.44195        57.20490        -0.66935
H         19.61106        59.28822        -1.33079
H         23.23913         2.51155         1.29948
H         21.08221         3.74006         1.11770
H         22.84019        62.43609        -2.96789
H         20.78304        61.34218        -2.10144
H         25.34814         3.53065         0.43550
H         26.55751         5.62998        -0.19538
H         26.25018        59.07657        -2.90594
H         24.95727        61.14895        -3.21716
H         27.77772         7.55393        -0.85138
H         29.04708         9.62486        -0.93881
H         28.77234        54.89486        -2.56795
H         27.52459        56.97636        -2.72785
H         30.33181        11.83178        -1.22113
H         31.54759        13.99780        -1.16848
H         31.44750        50.60110        -1.59680
H         30.21598        52.86446        -1.72477
H         32.81279        16.12379        -0.83290
H         34.07164        18.30273        -0.61242
H         34.06696        46.57318        -0.24384
H         32.65826        48.39520        -1.25896
H         35.28350        20.47853        -0.50510
H         36.48896        22.56899        -0.23899
H         36.40107        42.18717        -0.39555
H         35.30658        44.34091        -0.18501
H         37.76504        24.79167         0.01064
H         38.95664        26.89453        -0.05250
H         38.88134        37.92064        -0.47727
H         37.61596        40.06936        -0.49384
H         40.19464        29.03259        -0.03855
H         41.41466        31.16728        -0.21508
H         41.40600        33.63246        -0.33519
H         40.14699        35.76680        -0.35249
