         284
 CSIRO Nanostructure Databank - Neutral Graphene Oxide Data Set
C        -11.10081         0.75858        -1.02029
C         -9.87949         1.52021        -1.49240
C         -8.59488         0.75268        -1.18693
C         -7.35368         1.51244        -0.84504
C         -6.25115         0.77103        -0.10036
C         -4.94416         1.52054        -0.29964
C         -3.65187         0.78672        -0.33205
C         -2.37783         1.54749        -0.08291
C         -1.07848         0.81137        -0.05438
C          0.21265         1.59311         0.30155
C          1.40597         0.68361         0.61472
C          2.60749         1.32115         1.24345
C          3.89411         0.55797         1.15978
C          5.24500         1.32291         1.16254
C          6.37118         0.62454         0.33915
C          7.55620         1.44494        -0.09418
C          8.51712         0.87734        -1.12539
C          9.78965         1.62354        -1.35998
C         11.04452         0.84129        -1.37689
C         -9.80258         2.98570        -1.10379
C         -8.62345         3.69358        -0.87057
C         -7.35654         2.98696        -0.66308
C         -6.22564         3.65813        -0.25058
C         -4.96042         2.97799        -0.01627
C         -3.78798         3.61684         0.29392
C         -2.62067         2.77681         0.80096
C         -1.32161         3.49249         1.26977
C          0.01234         2.77887         1.24343
C          1.29297         3.55349         1.56475
C          2.61583         2.81426         1.53452
C          3.92036         3.55837         1.37774
C          5.03893         2.79833         0.70848
C          6.17713         3.57928         0.16307
C          7.56953         2.95954         0.12600
C          8.56141         3.68545        -0.77436
C          9.76461         3.07504        -1.11956
C         -8.59285         5.11986        -0.84690
C         -7.44124         5.85614        -0.45102
C         -6.28041         5.10501         0.15827
C         -4.96133         5.84817        -0.16007
C         -3.69317         5.08211         0.23271
C         -2.47974         5.75933         0.78890
C         -1.30723         5.03683         1.47062
C          0.02457         5.60937         0.77242
C          1.28337         5.05158         1.45100
C          2.60461         5.81070         1.45197
C          3.94432         5.08392         1.42533
C          5.31761         5.85066         1.28504
C          6.45247         5.02652         0.55553
C          7.10852         5.67920        -0.65411
C          8.26493         5.00886        -1.14133
C         -7.36306         7.23038        -0.58089
C         -6.27220         8.06973         0.04276
C         -5.05239         7.23171         0.47018
C         -3.82910         7.96116         0.90148
C         -2.51084         7.24862         1.00740
C         -1.22331         7.95013         0.75943
C          0.04049         7.14616         0.57411
C          1.29329         7.95487         0.73921
C          2.55846         7.31374         1.23573
C          3.84028         8.06341         1.06022
C          5.08414         7.27684         0.69395
C          5.67026         7.69762        -0.62655
C          6.63929         6.81050        -1.27823
C         -5.75938         9.22547        -0.80356
C         -4.64974         9.88801        -0.44678
C         -3.84225         9.50068         0.80370
C         -2.46422        10.09565         0.81595
C         -1.26199         9.38676         0.25650
C          0.03995        10.09301         0.55233
C          1.20184         9.44724         0.78645
C          2.47497        10.21047         1.04732
C          3.77581         9.51985         0.57027
C          4.03681         9.54484        -0.91699
C          4.96571         8.72501        -1.43667
C        -11.13964        -0.58050        -0.92896
C         -9.91446        -1.45515        -1.13669
C         -8.71516        -0.65449        -0.57742
C         -7.41768        -1.46062        -0.63443
C         -6.10973        -0.66827        -0.60630
C         -4.94315        -1.35843         0.07722
C         -3.64087        -0.68698        -0.20777
C         -2.48863        -1.36675        -0.01271
C         -1.18093        -0.68021         0.20925
C          0.03754        -1.48593         0.53001
C          1.38087        -0.80661         0.52465
C          2.55303        -1.67794         1.00888
C          3.89301        -0.92756         0.85093
C          5.07304        -1.55325         0.19328
C          6.03515        -0.61792        -0.52240
C          7.27770        -1.37704        -1.04728
C          8.53375        -0.62099        -1.32516
C          9.88138        -1.39972        -1.45620
C         11.07860        -0.49714        -1.25681
C        -10.05503        -2.83944        -0.42007
C         -8.76077        -3.62577        -0.27221
C         -7.46170        -2.89837        -0.24653
C         -6.41058        -3.42218         0.73559
C         -5.01053        -2.79596         0.46472
C         -3.84295        -3.67010         0.00532
C         -2.53530        -2.85224        -0.10624
C         -1.26295        -3.60116        -0.01989
C          0.02467        -3.01847         0.51787
C          1.22421        -3.59948        -0.23456
C          2.51809        -2.92750         0.10473
C          3.77016        -3.72818         0.04120
C          5.03597        -2.99215        -0.17856
C          6.17321        -3.63392        -0.56160
C          7.36711        -2.88084        -0.93247
C          8.75876        -3.55992        -0.71432
C          9.85052        -2.62159        -0.55938
C         -8.66393        -4.98166        -0.30706
C         -7.42635        -5.70485         0.03070
C         -6.44985        -4.99770         0.98789
C         -5.03212        -5.68689         1.05776
C         -3.72838        -4.85821         0.99127
C         -2.45797        -5.74170         0.81437
C         -1.33277        -5.09979         0.05994
C         -0.13311        -5.83999        -0.43173
C          1.11660        -5.02285        -0.88076
C          2.42792        -5.85330        -0.76658
C          3.69675        -5.15414        -0.36389
C          4.97879        -5.87370        -0.67492
C          6.25628        -5.11713        -0.67012
C          7.50609        -5.77793        -0.17952
C          8.79177        -4.94795        -0.06752
C         -7.31687        -7.04822        -0.15112
C         -6.37470        -7.89021         0.70315
C         -5.01782        -7.18612         0.92418
C         -3.75040        -7.87022         0.47169
C         -2.43294        -7.24561         0.84127
C         -1.12595        -8.03616         0.57971
C         -0.07647        -7.33730        -0.26833
C          1.17932        -8.11837        -0.47221
C          2.46507        -7.36016        -0.67152
C          3.75604        -8.13583        -0.36568
C          4.94157        -7.22660        -0.04158
C          6.20741        -7.83338         0.45331
C          7.47661        -7.06580         0.25706
C         -6.24736        -9.31670         0.21941
C         -5.10075        -9.97372        -0.01431
C         -3.77942        -9.30261         0.00770
C         -2.52923       -10.07487         0.00963
C         -1.28060        -9.47771         0.12554
C         -0.06191       -10.20217         0.03738
C          1.20946        -9.52442         0.04407
C          2.39563       -10.09123         0.44789
C          3.58276        -9.19713         0.74237
C          4.92332        -9.90812         0.89614
C          6.11498        -9.29476         0.73549
O         -1.72365         7.77612         2.11798
O         -4.18013        -4.17590        -1.29338
H         -3.35089        -4.19395        -1.83091
O         -2.25247        -6.47186         2.05339
O          5.28790        -7.09104         1.37327
O          6.25283         8.14180         0.69174
O          5.30580        -0.12179        -1.65935
H          5.92846        -0.09740        -2.42733
O         -2.55009         5.48751        -0.65490
O          7.53449         4.79490         1.55669
O         -7.59480         0.99027        -2.20381
O          5.13852         3.13669        -0.72925
O         -6.40684         5.07583         1.65815
O          1.08294         4.39595         2.73005
O         -7.06946        -5.24553         2.22123
O          2.60226        -6.68617        -1.95690
O          1.85574        -2.67201        -1.15813
O         -3.73683        -8.15033        -0.95644
O          0.20082        -7.97362        -1.55016
O          7.61462         0.57610         1.07648
O          3.23066         7.95582         2.37224
O          5.71217         1.38580         2.50406
H          4.94368         1.60482         3.08119
O         -0.76539        -0.94518         1.62651
O         -1.57272         1.41582        -1.28799
O          3.32771         5.51135         2.66843
O          7.96866         3.36160         1.48539
O          5.78825         6.04851         2.61214
H          5.02153         6.32575         3.16483
O         -0.49697        -8.23475         1.93688
O          3.21363        -8.53535         1.98554
H          3.97098        -7.94378         2.23350
O         -4.75565         7.37212         1.88470
O          3.75793        -4.78811         1.06093
O          1.74297        -0.02777        -0.64075
O          0.65475         2.29667        -0.88355
H          0.75829         1.63815        -1.60620
O          2.38157        -2.05847         2.36756
H          2.75022        -1.34536         2.93579
O          8.09947        -3.52169        -2.01221
O         -1.28069        -5.60723        -1.31618
O         -3.20523         2.16876         1.98942
O         10.00833        -1.84176        -2.82493
H          9.12120        -2.16997        -3.10840
O          8.72098         1.46500        -2.43563
O         -4.81528        -1.77641         1.47926
O          5.67672        -5.68284        -1.92132
O          0.85230         7.47738        -0.58562
O         -4.92457        -6.56612         2.22634
O         -1.37167         5.33508         2.84804
H         -0.70979         4.77132         3.31488
O         -4.26887         1.28896        -1.57141
O         -1.74123        -3.16463        -1.32254
O          7.60516        -0.96002        -2.41036
O          5.00002        -1.47344         1.65200
O          3.13696         0.63504         2.42597
O         -4.58035        10.02273         1.93984
H         -4.17364         9.64710         2.75032
O         -9.72829        -1.68852        -2.53813
H         -8.84146        -2.10633        -2.65265
O         -1.43669         9.30305        -1.19893
H         -1.12858        10.14804        -1.58862
O          3.50616         3.03911         2.66419
O         -6.87833         8.63403         1.23439
H         -6.18476         9.20158         1.66827
O          0.94560        -4.74550        -2.26943
H          0.82948        -5.59972        -2.73826
O         -7.22758        -2.51807        -1.66178
O         -0.81774         2.71428         2.41971
O         -6.89839        -2.82976         1.94985
H         -7.02290        -3.58526         2.58971
O          4.81385        10.29609         1.21157
H          5.65736         9.78201         1.13371
O         -5.66579        -0.60703        -1.97592
H         -5.90100        -1.46058        -2.40513
O         -6.54363         0.72873         1.29935
H         -6.54494         1.63775         1.66384
O         -7.04596        -7.97802         1.97764
H         -7.07645        -7.04078         2.33256
O          0.13682        -3.48920         1.87263
H         -0.32959        -2.85301         2.46003
O         -7.49041         5.93933         2.06342
H         -7.08074         6.84895         2.09182
O         -9.99399         1.64450        -2.94110
H         -9.07326         1.58461        -3.29436
O         -4.93724         6.03899        -1.58860
H         -4.00077         5.98284        -1.88675
O          4.08607        -8.85589        -1.56926
H          3.89834        -8.26158        -2.33068
O         -3.56283        -4.23916         2.27488
H         -3.65706        -4.95181         2.94731
O        -10.56141        -2.59162         0.90747
H        -10.47192        -3.41400         1.43318
O          9.09445        -4.73926         1.31422
H          9.00602        -5.58679         1.79622
O          0.56371        -7.25227         2.11486
H          1.35140        -7.81730         2.35130
O          2.39235        11.50157         0.45357
H          3.24046        11.95311         0.65037
O          0.08922         5.02529        -0.53728
H         -0.66770         5.34285        -1.08005
O         -8.97275        -0.38130         0.81586
H         -9.36412        -1.18679         1.23333
H         -2.47762         1.94391         2.61644
H         12.05437        -1.00200        -1.19332
H         11.98277         1.41502        -1.32750
H         10.56341         3.68198        -1.57447
H          8.90651         5.51838        -1.87447
H          7.13322         7.16517        -2.19513
H          5.21008         8.76121        -2.50909
H          3.53107        10.29627        -1.54105
H          2.58243        10.32278         2.16584
H          0.04562        11.19388         0.53058
H         -2.38540        11.16329         1.07229
H         -4.30342        10.75058        -1.03517
H         -6.33773         9.54571        -1.68414
H         -8.21754         7.77479        -1.01419
H         -9.49137         5.67441        -1.15979
H        -10.72660         3.56872        -1.25421
H        -12.01947         1.34174        -0.84893
H        -12.08204        -1.07380        -0.64418
H        -10.80614        -3.46027        -0.98654
H         -9.56187        -5.59295        -0.50041
H         -8.09318        -7.58087        -0.72485
H         -7.19583        -9.87298         0.16264
H         -5.12155       -11.04006        -0.28799
H         -2.59028       -11.15992        -0.16962
H         -0.08688       -11.30224         0.00124
H          2.41101       -11.13146         0.80833
H          4.90631       -10.98131         1.14251
H          7.04948        -9.86528         0.84952
H          8.41156        -7.54262         0.59681
H          9.63148        -5.53392        -0.54767
H         10.58203        -2.76938         0.24718
