         260
 CSIRO Nanostructure Databank - Neutral Graphene Oxide Data Set
C         30.21366        31.61453         0.42569
C         30.40192        32.84911         0.41846
C         30.42052        36.06804         1.06838
C         30.42019        37.30219         1.03127
C         30.37482        40.54816         1.04381
C         30.23423        41.77301         1.04173
C         32.67835        29.01754        -0.26023
C         31.49326        29.36338         0.03833
C         32.88161        31.81620        -0.47787
C         30.95381        30.62123        -0.27703
C         32.79513        33.11147        -0.00368
C         31.47254        33.81106         0.13305
C         32.79034        36.05790         0.46997
C         31.48394        35.27499         0.41676
C         32.79667        37.43163         0.58621
C         31.50449        38.20737         0.64805
C         32.78471        40.49919         0.80157
C         31.49002        39.68588         0.64970
C         32.59203        41.98154         0.52136
C         31.17378        42.69094         0.28797
C         32.44315        44.76258         0.90530
C         31.40679        44.09585         0.78591
C         35.40473        27.38155        -0.17437
C         35.23833        28.77830        -0.11821
C         34.00087        29.53477        -0.22783
C         35.26132        31.60527         0.20825
C         34.00883        30.94584        -0.24115
C         35.24137        33.02358         0.67882
C         33.92632        33.80833         0.76521
C         35.21792        35.95337         0.20351
C         34.02670        35.29523         0.38673
C         35.29836        37.42384         0.05031
C         34.03050        38.23144         0.35218
C         35.55190        40.26551         0.75212
C         34.10973        39.69988         0.78416
C         35.73147        41.73152         0.70416
C         33.64924        42.81191         0.61224
C         35.13208        44.82046         0.61411
C         33.74305        44.28394         0.22291
C         35.48327        46.14293         0.06422
C         37.78714        27.28621        -0.26462
C         36.49195        26.73770        -0.25242
C         37.73743        28.69915        -0.04181
C         36.51116        29.42197        -0.04052
C         37.79894        31.58860         0.17268
C         36.51927        30.93457        -0.36488
C         37.81622        33.04317         0.54971
C         36.52760        33.80187         0.68778
C         37.78110        35.83523        -0.25548
C         36.51637        35.25842         0.39168
C         37.79502        37.34898        -0.16905
C         36.65900        38.04945         0.05465
C         37.98988        40.22948        -0.15168
C         36.76652        39.50215         0.33187
C         38.09696        41.75622        -0.02350
C         36.75009        42.44846         0.17645
C         37.71728        44.65268        -0.69250
C         36.43596        43.85531        -0.35118
C         37.86037        46.12228        -0.36276
C         36.57857        46.70335        -0.09162
C         40.50898        24.86606         0.33842
C         39.43437        25.30478        -0.12275
C         40.30334        27.56432         1.49269
C         39.02785        26.59260        -0.73575
C         40.27660        28.89491         0.88154
C         38.97867        29.49195         0.29588
C         40.33285        31.57888         0.15266
C         39.05812        30.90052        -0.34993
C         40.32753        33.03418         0.58445
C         39.07216        33.79402         0.51586
C         40.35345        36.06828         0.35199
C         39.01722        35.24400         0.43898
C         40.36081        37.39144        -0.26198
C         39.04412        38.00990        -0.71497
C         40.29253        40.17542        -1.22540
C         39.05736        39.52643        -0.60329
C         40.34550        41.69762        -1.08170
C         38.95880        42.35157        -1.16940
C         40.27612        44.63413        -1.16080
C         38.95410        43.89712        -1.09152
C         40.35296        46.00682        -0.52961
C         39.06347        46.75209        -0.34204
C         40.35796        48.83808        -0.15498
C         39.32966        48.14522        -0.11818
C         42.93413        24.63167         0.88226
C         41.59210        24.71481         1.21986
C         42.74275        27.58860         1.46037
C         41.53242        26.95315         1.77776
C         42.80298        28.82456         0.70335
C         41.58161        29.49133         0.51140
C         42.86105        31.58906         0.06531
C         41.59771        30.81840        -0.22741
C         42.83626        32.94746         0.16185
C         41.63033        33.76240         0.51985
C         42.78462        35.88404        -0.31277
C         41.63348        35.27456         0.40896
C         42.86038        37.34276        -0.49134
C         41.58003        38.08906        -0.54079
C         42.86431        40.20555        -1.04763
C         41.57072        39.46027        -0.83187
C         42.80968        41.70323        -0.79603
C         41.53413        42.38187        -1.08889
C         42.86602        44.61304        -1.20801
C         41.55271        43.86498        -1.30066
C         42.79665        46.15689        -1.28193
C         41.67273        46.69260        -0.38641
C         42.94567        48.85145        -0.48261
C         41.73399        48.45269         0.22604
C         44.14333        24.99262         0.95510
C         45.39760        27.10926         0.16770
C         44.58812        26.35246         0.96167
C         45.43733        28.66363         0.29912
C         44.07445        29.41089         0.24816
C         45.30350        31.51598        -0.31892
C         44.11096        30.80844        -0.00287
C         45.28857        32.97147        -0.51600
C         44.09871        33.75222         0.02948
C         45.65518        36.01382        -0.78157
C         43.75941        35.02623        -0.72316
C         45.43832        37.45122        -0.51685
C         44.06078        38.02446        -0.50644
C         45.20965        40.26489         0.11846
C         44.00364        39.50377        -0.33304
C         45.25373        41.72583        -0.17861
C         43.94633        42.40302        -0.45701
C         45.18707        44.64039        -0.08904
C         44.07913        43.86293        -0.76554
C         45.34307        46.10566        -0.51285
C         44.18063        46.84023        -1.08094
C         43.97307        48.27653        -0.84938
C         47.66011        27.16352        -0.65660
C         46.53497        26.62607        -0.54738
C         47.81381        28.59301        -0.99949
C         46.51000        29.30611        -0.64432
C         47.89502        31.55030        -0.49651
C         46.53965        30.80752        -0.63402
C         47.83987        32.98133        -0.08369
C         46.63077        33.75460        -0.50718
C         47.75677        35.87181         0.46352
C         46.62303        35.22400        -0.25630
C         47.74151        37.34957         0.65948
C         46.57931        38.15424         0.15293
C         47.61461        40.25806         0.87272
C         46.48765        39.59688         0.49641
C         47.82447        41.73847         0.61696
C         46.49401        42.47193         0.26658
C         47.49731        44.66458         1.24773
C         46.31733        43.92506         0.60504
C         47.40122        46.07072         0.83302
C         46.52446        46.63190         0.17799
C         50.28182        29.23271        -1.77303
C         49.17610        29.22882        -0.71758
C         50.45567        31.61221        -0.23222
C         49.15924        30.77867        -0.27901
C         50.42831        33.09237        -0.08530
C         49.15524        33.74023         0.21933
C         50.33237        36.06089         0.07455
C         49.07908        35.23430         0.14059
C         50.32052        37.58236         0.39582
C         48.98558        38.09581         0.86845
C         50.00921        40.23713         1.84891
C         48.82799        39.49426         1.29990
C         50.01683        41.75202         1.82486
C         48.82227        42.42719         1.55698
C         50.01656        44.50791         1.99455
C         48.70204        43.91628         1.73819
C         51.38887        29.78189        -1.50933
C         52.75920        31.88789        -0.78186
C         51.70453        30.98530        -0.85111
C         52.79310        33.06841        -0.31206
C         51.62042        33.88961        -0.15359
C         52.65728        36.16396         0.46000
C         51.61860        35.28236         0.08707
C         52.66921        37.29073         1.00628
C         51.45991        38.05063         1.35272
C         52.40015        40.34032         2.31186
C         51.32607        39.41345         1.99172
C         52.35959        41.58908         2.29370
C         51.25719        42.46058         2.15972
C         51.07328        43.86207         2.14924
O         47.62326        44.34566         2.63685
O         35.26446        31.90183         1.63966
O         46.83540        28.90035        -2.01104
O         43.12468        40.09295        -2.53538
O         49.85695        30.93246         0.96778
O         33.44341        40.05296         2.02981
O         44.69417        35.48211        -1.64917
O         46.45630        38.16636        -1.32875
O         38.06523        44.47101        -2.11540
O         39.54785        35.98827         1.56868
O         31.78226        31.29545        -1.22491
O         40.83393        44.37680        -2.48132
O         47.30633        31.31405        -1.78127
O         36.51499        31.04211        -1.74514
O         34.49699        38.02493        -1.02178
O         43.90627        27.09012         2.00072
O         39.26007        29.66122         1.68853
O         34.72623        42.40384         1.38105
O         39.74103        27.12206        -1.57477
O         43.84576        44.12025        -2.18511
O         36.44775        39.70318         1.77722
O         41.22115        45.89140         0.70652
O         51.15359        38.19558         2.73848
O         49.03174        39.72614         2.79287
O         48.29372        33.20102         1.27226
O         45.10597        44.32920         1.33415
O         41.44521        25.65334         2.36930
O         45.97199        33.39004        -1.73273
O         37.82379        35.44047        -1.60613
O         36.65005        34.78780         1.77055
O         49.56498        35.76480        -1.14270
O         47.45906        36.37351         1.78987
O         31.30208        38.97271        -0.58652
O         37.84620        31.91044         1.54910
O         40.34477        31.91486         1.55129
O         31.17965        34.79704        -0.90897
O         46.23735        42.18874        -1.15831
O         41.90549        34.63614         1.69265
O         45.22170        46.33950        -1.93421
O         44.12378        39.93556         1.06603
O         35.41103        44.79742         1.97009
H         34.87555        44.11297         2.42394
O         44.52914        34.18287         1.35242
H         43.71755        34.42888         1.86825
O         40.18934        39.97679        -2.66229
H         39.29013        40.27431        -2.93430
O         49.63534        28.49214         0.38713
H         50.27551        29.04195         0.89625
O         39.19613        27.04847         2.02026
H         39.43978        26.20321         2.46788
O         41.92433        48.40454         1.58030
H         41.13849        48.02013         2.01956
O         39.06018        30.85386        -1.76567
H         38.08796        30.86031        -2.07832
O         35.76567        43.59975        -1.57422
H         36.41045        43.74583        -2.30915
O         48.61447        41.74053        -0.61311
H         47.98814        41.61835        -1.36793
O         50.63656        38.25606        -0.85250
H         50.12335        37.81513        -1.56687
O         30.85742        42.69601        -1.06405
H         29.98988        43.12452        -1.20712
O         41.67560        30.55489        -1.64201
H         40.76195        30.43997        -2.00925
O         45.98860        28.95611         1.60696
H         45.42444        28.51267         2.28056
O         33.52508        44.45424        -1.15158
H         33.90341        45.31472        -1.43163
O         44.43696        40.64185        -2.76297
H         44.25296        41.49120        -3.23607
O         42.39446        46.50013        -2.61344
H         43.02790        46.08141        -3.23566
O         39.02189        37.68894        -2.13320
H         38.59106        36.77643        -2.22637
O         38.85494        42.03211         1.18389
H         38.40230        41.59729         1.93913
O         33.50229        33.80489         2.14817
H         33.97827        33.07082         2.60214
O         38.33640        41.96070        -2.40643
H         38.61953        42.59324        -3.10258
