         470
 CSIRO Nanostructure Databank - Neutral Graphene Oxide Data Set
C         37.67291        50.48486        -0.26700
C         36.51991        51.21506        -0.48151
C         37.70108        53.26090         0.03248
C         36.53255        52.61486        -0.32541
C         40.08912        48.91433         0.31465
C         40.08918        50.35980         0.35324
C         38.89066        51.11839         0.10429
C         40.13195        53.20960         0.61748
C         38.90575        52.54122         0.24947
C         40.21249        54.65631         0.67304
C         42.37289        48.84545         1.21662
C         41.14497        48.18609         0.75602
C         42.49438        50.29159         0.97925
C         41.28547        51.03144         0.69026
C         42.55322        53.10227         1.23149
C         41.29367        52.45306         0.82341
C         42.59661        54.61290         1.31880
C         41.36222        55.32265         0.94211
C         44.87846        45.92021         1.06463
C         43.70889        46.59721         1.18114
C         44.94458        48.78844         1.28732
C         43.67875        48.04887         1.42377
C         44.96739        50.15626         1.16955
C         43.74242        50.92223         1.06638
C         45.01924        53.03901         0.83681
C         43.82005        52.36463         1.03213
C         45.05147        54.49845         0.77738
C         43.91175        55.27127         1.11060
C         45.22352        57.29460         0.88317
C         44.01572        56.66762         1.16427
C         47.39181        44.38864         1.06351
C         47.34747        45.81684         1.13937
C         46.16841        46.54821         1.19432
C         47.41996        48.71997         0.86088
C         46.23671        48.03117         1.50922
C         47.46107        50.07873         0.76596
C         46.29584        50.89559         1.28292
C         47.39307        52.89387         0.18187
C         46.26557        52.29704         0.70656
C         47.22409        54.28833        -0.41041
C         46.24227        55.14762         0.36837
C         47.59701        57.24770         0.08905
C         46.32544        56.55107         0.42431
C         47.63527        58.70297        -0.13422
C         49.84794        44.32568         0.89732
C         48.57420        43.68546         1.00580
C         49.87896        45.74720         0.87219
C         48.65822        46.56196         1.25823
C         49.89287        48.61676         0.44833
C         48.58517        47.86202         0.42966
C         49.88614        50.03227         0.25166
C         48.67158        50.76754         0.33095
C         49.85014        52.80095        -0.38027
C         48.65273        52.16576         0.04297
C         49.84285        54.20004        -0.85871
C         48.54981        54.97346        -0.77732
C         49.83808        57.16519        -1.18661
C         48.71686        56.44269        -0.50951
C         49.94018        58.62149        -1.00166
C         48.75484        59.32708        -0.58931
C         52.24694        41.38849         0.85049
C         51.10032        42.12022         0.89530
C         52.26764        44.22322         0.45693
C         51.06171        43.55555         0.68469
C         52.33045        45.68043         0.69885
C         51.07153        46.45298         0.69138
C         52.34628        48.59250         0.34988
C         51.08744        47.88620         0.51419
C         52.34783        50.02745         0.10950
C         51.12476        50.73048         0.03465
C         52.32692        52.80672        -0.61236
C         51.10523        52.12719        -0.30396
C         52.31602        54.19950        -1.02735
C         51.13573        54.91424        -1.05207
C         52.37479        57.12238        -1.41917
C         51.12264        56.35239        -1.43638
C         52.37893        58.51478        -1.42822
C         51.14953        59.27356        -1.29771
C         52.40395        61.35003        -1.66197
C         51.22410        60.70282        -1.42415
C         54.87724        39.89014         0.80314
C         54.79291        41.25477         0.45772
C         53.49173        41.93448         0.29039
C         54.76547        44.22524        -0.13987
C         53.46932        43.47979         0.07750
C         54.80354        45.71553        -0.04107
C         53.61433        46.43475         0.53796
C         54.81159        48.62751         0.44256
C         53.54195        47.89848         0.36061
C         54.81959        50.03286         0.01354
C         53.57487        50.71597        -0.14644
C         54.78111        52.67219        -1.04008
C         53.56036        52.09512        -0.55105
C         54.86494        54.07991        -1.49982
C         53.56713        54.83884        -1.53617
C         54.90969        57.07103        -1.43131
C         53.62247        56.36158        -1.63307
C         54.84726        58.50497        -1.33512
C         53.64971        59.23060        -1.46396
C         54.87806        61.37653        -1.83700
C         53.66491        60.66461        -1.64684
C         54.97383        62.75768        -2.17047
C         57.35609        39.91717         1.01231
C         56.07228        39.20444         0.93884
C         57.33881        41.38402         0.68677
C         56.05316        41.97902         0.17825
C         57.30328        44.18532         0.37680
C         56.06735        43.45833        -0.10194
C         57.30429        45.66442         0.50079
C         56.14938        46.44720        -0.10377
C         57.34519        48.61210         0.12897
C         56.10331        47.87310         0.41941
C         57.32395        49.94885        -0.25740
C         56.01558        50.59938        -0.44478
C         57.67410        52.93528        -1.08174
C         55.88238        51.82170        -1.15475
C         57.45184        54.27764        -0.91899
C         56.20648        54.91312        -1.42291
C         57.33853        57.10555        -0.92010
C         56.11161        56.38061        -1.24134
C         57.34886        58.47809        -1.07750
C         56.10491        59.23788        -1.16896
C         57.42080        61.33854        -2.06674
C         56.14682        60.72065        -1.48285
C         57.42939        62.84531        -1.86851
C         56.16809        63.46445        -2.10081
C         60.03991        37.19138         1.20842
C         58.78554        37.87608         1.24111
C         59.78941        39.89006         0.24739
C         58.64710        39.19009         0.87341
C         59.82780        41.37137         0.19836
C         58.61374        42.08763         0.34479
C         59.83530        44.20966         0.16687
C         58.61102        43.48218         0.28993
C         59.86407        45.64548         0.22634
C         58.62793        46.38576         0.54702
C         59.83643        48.57469        -0.01924
C         58.60532        47.90549         0.36166
C         59.81178        49.99109        -0.16713
C         58.56444        50.67134        -0.30531
C         59.83390        52.85532        -0.03786
C         58.52220        52.16079        -0.10942
C         59.73567        54.31179         0.14144
C         58.51325        55.05098        -0.29086
C         59.68582        57.21407         0.19822
C         58.52823        56.42190        -0.41911
C         59.73352        58.68110        -0.24235
C         58.62531        59.22587        -1.08654
C         59.88687        61.46111        -1.28863
C         58.68720        60.64023        -1.58752
C         59.87881        62.84400        -1.36093
C         58.62558        63.54836        -1.62900
C         59.81124        65.68069        -1.32280
C         58.66710        64.98342        -1.60354
C         62.60619        35.74736         0.95074
C         62.50149        37.11956         0.87762
C         61.20854        37.79158         0.78653
C         62.33778        39.96214         0.03330
C         61.12705        39.14358         0.18698
C         62.29966        41.33840        -0.07771
C         61.04455        42.06893         0.01433
C         62.30984        44.23173         0.02355
C         61.06253        43.50107         0.03183
C         62.32883        45.65931         0.05645
C         61.07280        46.34256         0.06651
C         62.40669        48.55754        -0.06650
C         61.05596        47.80005        -0.15231
C         62.27417        49.98316         0.33658
C         61.03822        50.71179        -0.00066
C         62.27975        52.85328         0.15310
C         61.04051        52.14289         0.06649
C         62.27093        54.29596        -0.16513
C         61.04492        55.07605         0.15182
C         62.23826        57.20989        -0.13186
C         61.04178        56.53563        -0.06191
C         62.28856        58.64787        -0.05469
C         61.03442        59.39516        -0.31551
C         62.40772        61.45649        -0.83295
C         61.12915        60.70195        -1.04632
C         62.32792        62.94395        -0.79569
C         61.09520        63.60972        -1.07742
C         62.23032        65.77907        -0.65211
C         61.05744        65.02604        -1.02511
C         62.26782        67.20145        -0.60566
C         65.06002        35.69665         0.71495
C         63.85220        35.05080         0.86692
C         65.06740        37.17609         0.70105
C         63.74917        37.91814         0.75383
C         64.74861        39.90250        -0.68129
C         63.66440        39.30988         0.20188
C         64.74563        41.42015        -0.45311
C         63.55864        42.08083        -0.16064
C         64.75317        44.25016         0.18715
C         63.54605        43.52911        -0.00214
C         64.80434        45.65906         0.30586
C         63.58071        46.38654         0.17975
C         64.85507        48.51131         0.48533
C         63.62565        47.80881         0.24908
C         64.85993        50.01116         0.44670
C         63.54353        50.73293         0.65460
C         64.71278        52.88809         0.40735
C         63.50508        52.19708         0.40001
C         64.82068        54.25496        -0.15015
C         63.55357        55.01936        -0.43684
C         64.68213        57.13993         0.48728
C         63.59267        56.57171        -0.49593
C         64.71335        58.66085         0.51345
C         63.45197        59.35244         0.25514
C         64.29055        61.65675         0.63141
C         63.40465        60.80065         0.06305
C         64.70812        62.88904        -0.11838
C         63.44897        63.67468        -0.38283
C         64.58426        65.79604         0.17666
C         63.42540        65.08914        -0.28405
C         64.60046        67.20154         0.16902
C         63.41147        67.87847        -0.23887
C         67.59489        32.89653         0.48757
C         66.44020        33.62501         0.81154
C         67.44230        35.65691        -0.08782
C         66.32016        34.98722         0.51233
C         67.39908        37.05435        -0.36938
C         66.27236        37.88248         0.12066
C         67.14994        39.64469        -1.29886
C         66.10165        39.19822        -0.54729
C         67.06389        41.80360        -1.21991
C         65.96988        42.18164        -0.49061
C         67.30961        44.20644         0.30857
C         66.00227        43.47119         0.23618
C         67.28805        45.67366         0.45755
C         66.07762        46.36838         0.49290
C         67.33928        48.54953         0.89692
C         66.06162        47.81776         0.61467
C         67.41423        50.04143         0.86261
C         66.13333        50.79976         0.67433
C         66.99000        53.14513         1.35174
C         65.81001        52.24281         1.21631
C         67.20574        54.33611         0.75506
C         66.08435        55.02684         0.06118
C         67.21115        57.17073         0.46714
C         66.03658        56.50009         0.26195
C         67.22265        58.60984         0.61563
C         65.94363        59.29545         0.71570
C         67.16134        61.48482         0.70307
C         66.09604        60.69587         1.04897
C         67.07434        62.94379         0.77275
C         65.87278        63.60491         0.52255
C         67.04943        65.82319         0.96931
C         65.74327        65.05062         0.71915
C         67.04005        67.25213         0.63600
C         65.84488        67.93349         0.42268
C         66.99134        70.10081         0.66983
C         65.85460        69.37931         0.48105
C         70.05711        31.37954        -0.07902
C         69.82194        32.70644        -0.75691
C         68.67353        33.50190        -0.15433
C         69.68742        35.51455        -1.14365
C         68.60794        34.89190        -0.43339
C         69.46386        36.81420        -1.59826
C         68.44926        37.65609        -1.09260
C         69.66434        39.89348        -1.36547
C         68.49808        39.10072        -1.30589
C         69.65934        41.40748        -1.17484
C         68.41546        42.32479        -1.03532
C         69.73395        44.28081        -0.28169
C         68.50911        43.57579        -0.26410
C         69.78642        45.67038         0.02154
C         68.64071        46.25262         0.83018
C         70.02042        48.47052         0.88796
C         68.64074        47.77764         0.96573
C         69.91255        49.95508         0.62176
C         68.68416        50.63607         0.91666
C         69.86800        52.83591         0.70560
C         68.88341        52.04492         1.20802
C         69.83601        54.29249         0.86205
C         68.53654        54.97693         0.60152
C         69.74162        57.23135         0.68994
C         68.52009        56.47191         0.40153
C         69.69187        58.62766         0.67667
C         68.41668        59.31948         0.57431
C         69.63820        61.53537         0.82942
C         68.43245        60.80838         0.27221
C         69.57702        62.94215         1.02450
C         68.32132        63.67608         0.95067
C         69.55270        65.81511         1.09001
C         68.32287        65.07356         0.97390
C         69.55727        67.23952         1.01270
C         68.33174        67.94318         0.57124
C         69.53768        70.18017         1.05191
C         68.31674        69.47989         0.57627
C         69.53770        71.57778         1.19781
C         72.45032        31.53326        -0.44785
C         71.28737        30.82278         0.01038
C         72.34869        32.82480        -0.89473
C         71.09661        33.52052        -0.93792
C         72.19060        35.71180        -1.34398
C         70.99884        34.88793        -1.24709
C         72.30531        37.08032        -1.44270
C         71.22160        37.96418        -1.77958
C         72.16332        40.03200        -0.93050
C         70.99119        39.28369        -1.35670
C         72.13084        41.32474        -0.56000
C         70.82470        42.03910        -0.38610
C         72.08590        44.26052        -0.85499
C         70.91258        43.54472        -0.61366
C         72.09533        45.65369        -0.74931
C         70.97889        46.37357        -0.24015
C         72.10046        48.57288        -0.47044
C         71.04494        47.80399        -0.00531
C         72.14439        49.97289        -0.31106
C         71.04486        50.68410         0.19590
C         72.28771        52.93631         0.44883
C         71.03196        52.20050        -0.00511
C         72.25260        54.23842         0.82390
C         71.01085        55.00560         0.86870
C         72.20795        57.29939         0.74376
C         70.99336        56.50747         1.14448
C         72.14744        58.66180         0.69043
C         70.90837        59.38886         0.79071
C         72.02952        61.56242         1.29405
C         70.85959        60.82515         0.95159
C         71.98935        62.93170         1.43847
C         70.78056        63.66301         1.28590
C         71.94320        65.86692         1.54850
C         70.76674        65.10885         1.32686
C         71.92111        67.24725         1.54255
C         70.73356        67.97388         1.26580
C         71.87490        70.16036         1.70760
C         70.72238        69.44419         1.31656
C         71.86182        71.54509         1.83760
C         70.68754        72.26039         1.58658
O         68.63582        55.56661        -0.75892
O         66.07412        37.78368         1.57125
O         63.88947        39.09733         1.62724
O         59.05468        59.50722        -2.47640
O         66.13977        65.48170         2.06808
O         53.26819        42.54328        -1.02494
O         69.25557        42.25075        -2.26657
O         55.51882        48.20759         1.70219
O         56.25188        42.52576        -1.19314
O         56.94013        52.19324        -2.00286
O         67.99587        52.59019         2.15584
O         62.78042        54.48131        -1.53989
O         62.13198        60.79234        -2.10096
O         66.93107        40.75595        -2.14102
O         48.72056        56.73174         0.92578
O         61.82749        48.23073        -1.34706
O         65.03113        61.28976         1.75613
O         53.22347        45.98278         1.87349
O         54.56046        45.07864        -1.33453
O         66.73672        43.47914         1.49547
O         60.13563        59.56244         0.86283
O         67.94918        48.11291         2.21415
O         70.26043        37.36409        -2.61248
O         63.89839        56.97904        -1.77333
O         53.43813        55.51169        -2.82431
O         56.14706        60.29617        -0.09126
O         65.79971        54.45278        -1.25045
O         48.98476        54.47830        -2.06627
O         62.73381        50.21692         1.73506
O         65.60613        50.58510        -0.67903
O         68.52796        68.72295        -0.65960
O         58.72740        47.24907         1.71162
O         55.68313        54.36394        -2.66136
O         60.39621        54.71074         1.40168
O         60.24126        39.23029        -0.98339
O         42.83726        48.44163         2.55503
O         57.02692        44.85398         1.67068
O         57.32689        40.96779         2.08451
O         42.48856        53.80152         2.53472
O         50.18641        56.71095        -2.51311
O         68.53473        60.91421        -1.18622
H         69.29526        60.36606        -1.47316
O         46.51981        54.08397        -1.67691
H         47.21429        53.90753        -2.35591
O         70.57744        48.36301         2.24047
H         69.82322        48.49559         2.85961
O         46.52763        51.02325         2.73350
H         45.80337        51.57590         3.09992
O         46.48289        48.14103         2.96140
H         46.52941        49.11120         3.16422
O         68.90470        45.72799         2.16835
H         68.31974        46.22673         2.78339
O         64.23537        56.68351         1.80234
H         64.71750        57.18984         2.48990
O         65.17428        62.38566        -1.41232
H         65.35058        63.15096        -1.99831
O         69.36063        32.37545        -2.11925
H         70.08435        31.87795        -2.55598
O         57.86067        52.39057         1.19589
H         58.46235        52.06430         1.89978
O         59.44099        57.19767         1.62033
H         59.83777        58.02230         1.98660
O         70.93682        56.58097         2.62908
H         71.06966        57.52153         2.87672
O         70.92746        52.39590        -1.44432
H         70.74250        53.34624        -1.60257
O         57.31971        61.14457        -3.50251
H         57.93649        60.41323        -3.74203
O         56.51461        46.61878        -1.49656
H         55.98343        45.96590        -2.01939
O         65.28248        52.02480         2.55533
H         66.04946        51.90566         3.15699
O         48.88163        46.89712         2.64672
H         48.04705        47.30091         3.00517
O         64.29371        39.67230        -2.04353
H         64.94848        40.10078        -2.63984
O         48.34706        47.45086        -0.95251
H         48.34839        48.25587        -1.51187
O         70.44490        41.86728         1.01555
H         71.06510        42.38241         1.57293
H         37.63508        49.39474        -0.39159
H         35.59081        50.70446        -0.76985
H         37.68183        54.35193         0.15290
H         35.61217        53.19239        -0.48801
H         39.18581        48.38301        -0.01302
H         39.32398        55.24533         0.40889
H         41.07185        47.09118         0.80517
H         41.38560        56.41758         0.84389
H         44.83776        44.83801         0.87833
H         42.75829        46.04846         1.14033
H         45.29196        58.38534         0.98247
H         43.15010        57.27480         1.46121
H         46.45322        43.81711         1.08161
H         46.74845        59.30571         0.10190
H         48.52112        42.58852         0.97923
H         48.74642        60.42394        -0.65530
H         52.23482        40.35112         1.21429
H         50.19046        41.62756         1.26558
H         52.38974        62.43921        -1.80320
H         50.29841        61.29283        -1.39196
H         53.94363        39.31387         0.88356
H         54.05757        63.32162        -2.39646
H         56.05617        38.11194         1.05168
H         56.11616        64.55710        -2.21365
H         60.07066        36.17871         1.63421
H         57.92604        37.33881         1.66678
H         59.76595        66.77817        -1.31294
H         57.74871        65.54826        -1.81379
H         61.69443        35.13589         1.00181
H         61.38143        67.78515        -0.88874
H         63.81409        33.95260         0.86952
H         63.39301        68.97619        -0.26041
H         67.60783        31.82244         0.71590
H         65.60718        33.09635         1.29497
H         66.91326        71.17359         0.89554
H         64.89239        69.90871         0.51193
H         69.18098        30.79349         0.23218
H         68.62594        72.15134         0.98240
H         73.42997        31.03793        -0.41095
H         71.41427        29.81824         0.43902
H         73.26876        33.34045        -1.20235
H         73.13883        35.19275        -1.14096
H         73.29314        37.51424        -1.22271
H         73.13285        39.51539        -0.97919
H         73.05678        41.82921        -0.24847
H         73.01366        43.74191        -1.13521
H         73.03228        46.18326        -0.96553
H         72.91531        48.10190        -1.03746
H         73.00464        50.52399        -0.71479
H         73.25749        52.42233         0.36569
H         73.19498        54.74927         1.07326
H         73.17821        56.79404         0.63627
H         73.07539        59.22596         0.51438
H         72.98417        61.03736         1.43385
H         72.92347        63.45936         1.67190
H         72.89933        65.36179         1.73785
H         72.86265        67.77810         1.73198
H         72.81188        69.63018         1.92135
H         72.77598        72.07380         2.14067
H         70.67169        73.35436         1.68441
