         280
 CSIRO Nanostructure Databank - Neutral Graphene Oxide Data Set
C         30.25190        31.89628         0.47470
C         30.34470        33.01069        -0.04276
C         30.26554        36.11280        -0.78176
C         30.39895        37.29143        -0.43822
C         30.45104        40.42417        -0.44752
C         30.39290        41.61372        -0.76570
C         32.72849        29.18450         0.99275
C         31.58000        29.66701         0.88957
C         32.69065        31.74722         0.23013
C         31.42877        31.17406         1.07763
C         32.74522        33.27620         0.15983
C         31.43864        33.98698        -0.13708
C         32.72887        36.01531        -0.77952
C         31.42688        35.19617        -1.03873
C         32.76158        37.34573        -0.48094
C         31.53366        38.15842        -0.36553
C         32.83035        40.27227        -0.54327
C         31.56556        39.52258        -0.40230
C         32.82505        41.67166        -0.80524
C         31.51489        42.57518        -0.89905
C         32.69156        44.20136         0.59835
C         31.69264        43.56503         0.24029
C         35.45466        27.56635         0.90930
C         35.27487        29.00335         0.90450
C         34.04596        29.70732         0.85483
C         35.22164        31.82746         0.42487
C         34.03129        31.12054         0.59910
C         35.21869        33.17436        -0.13861
C         34.02614        33.86873        -0.29056
C         35.26548        36.00494        -0.75756
C         33.99873        35.21384        -0.99791
C         35.28144        37.34232        -0.57385
C         34.04483        38.07642        -0.10315
C         35.28895        40.25684        -0.42313
C         34.05200        39.55959        -0.45083
C         35.28653        41.67205        -0.51460
C         34.07485        42.31762        -0.84750
C         35.25291        44.31120         0.93428
C         34.07125        44.26081         0.22498
C         35.28729        44.62540         2.31222
C         37.80519        27.46378         0.50808
C         36.44569        26.90437         0.57320
C         37.77501        28.89689         1.08154
C         36.49416        29.67190         0.83548
C         37.58995        31.58338        -0.32073
C         36.56046        31.18407         0.76045
C         37.68100        33.09717        -0.44669
C         36.49380        33.79829        -0.49887
C         37.76906        35.93869        -0.52253
C         36.53582        35.23026        -1.02503
C         37.77473        37.30018        -0.41685
C         36.56869        38.10391        -0.83642
C         37.75816        40.25070        -0.26371
C         36.56955        39.55783        -0.39322
C         37.80350        41.70360        -0.15933
C         36.54132        42.44360        -0.33619
C         37.80877        44.50778         0.67035
C         36.51906        43.88689         0.27304
C         37.84170        45.90281         0.97917
C         35.38939        44.94092         3.51521
C         40.28388        24.64965         0.98092
C         39.25240        25.29212         0.74277
C         40.37938        27.43747         1.21028
C         39.09164        26.74250         0.63895
C         40.40631        28.96517         0.87975
C         39.06979        29.65947         0.70648
C         40.24148        31.54933        -0.59948
C         38.96146        30.88386        -0.17480
C         40.22435        33.03348        -1.02628
C         38.95914        33.78049        -0.60320
C         40.28724        35.90582        -0.68948
C         38.99414        35.15515        -0.49398
C         40.30308        37.29387        -0.07359
C         39.00454        38.03306        -0.06156
C         40.24127        40.18267         0.34238
C         39.07735        39.50918        -0.41711
C         40.27853        41.65155        -0.03337
C         38.99274        42.40340         0.04957
C         40.27907        44.52113         0.45669
C         39.02229        43.82129         0.36901
C         40.28873        45.91726         0.66849
C         39.06403        46.59811         0.86558
C         40.25779        48.76565         0.80797
C         39.27197        48.01790         0.97641
C         42.92229        24.48539         0.94814
C         41.63039        25.14400         0.66233
C         42.99494        27.44421         0.88636
C         41.65285        26.69169         0.72717
C         42.95868        28.79351         0.17345
C         41.75653        29.66833         0.52547
C         42.86068        31.52434        -0.83999
C         41.58835        30.84155        -0.44296
C         42.81716        33.04550        -1.06582
C         41.51899        33.74497        -0.62459
C         42.76092        35.85463        -0.09524
C         41.51749        35.08503        -0.38713
C         42.79286        37.35538        -0.15297
C         41.57884        38.07127        -0.11655
C         42.79934        40.16164         0.22256
C         41.57396        39.47024         0.08623
C         42.77679        41.62709         0.63729
C         41.57167        42.36970         0.07705
C         42.76073        44.49037         0.30733
C         41.55055        43.84024         0.27224
C         42.85582        45.92171         0.79374
C         41.57060        46.71307         0.45919
C         42.89480        48.82314         0.64914
C         41.60084        48.20414         1.18132
C         43.90568        25.25041         0.61104
C         45.26435        27.17152        -0.41838
C         44.16950        26.56958         0.40226
C         45.44589        28.68667         0.04100
C         44.12869        29.42804        -0.18263
C         45.37902        31.51570        -0.59542
C         44.16948        30.84760        -0.51798
C         45.38228        32.97611        -1.09100
C         44.08431        33.59323        -0.37571
C         45.29214        35.88816        -0.45455
C         44.04707        35.10329        -0.11489
C         45.30421        37.27691         0.24029
C         44.01577        38.05185         0.00438
C         45.31178        40.17061         0.51708
C         44.02608        39.45320         0.18985
C         45.34038        41.67287         0.55100
C         44.06002        42.38768         0.33780
C         45.25480        44.56468         0.16324
C         44.00911        43.74801         0.21357
C         45.07386        45.91391        -0.60253
C         44.03950        46.68703         0.13869
C         43.85954        48.03327         0.40853
C         47.67788        27.18566         0.19356
C         46.64061        26.61962        -0.15138
C         47.99009        28.62408         0.26692
C         46.74278        29.31494        -0.56266
C         47.78726        31.58669        -0.59590
C         46.65013        30.83141        -0.50863
C         47.90216        33.00653        -0.38413
C         46.72088        33.83195        -0.89542
C         47.81741        35.86809         0.03543
C         46.51556        35.05659         0.02001
C         47.82787        37.31433        -0.36441
C         46.53801        38.06642        -0.18565
C         47.71253        40.28463        -0.47134
C         46.67278        39.47023         0.37463
C         47.80207        41.72349         0.08953
C         46.64676        42.39517         0.37341
C         47.82398        44.60949        -0.09574
C         46.59673        43.88617         0.33645
C         47.47822        45.91932        -0.41079
C         46.43390        46.58591        -0.63039
C         50.60249        28.71259         1.23276
C         49.32909        29.19496         0.64435
C         50.38952        31.48030         0.95556
C         49.65436        30.60462         0.23388
C         50.23308        33.00454         0.84209
C         49.05105        33.60220         0.06318
C         50.36756        35.75687        -0.35476
C         49.08895        35.09949         0.08880
C         50.36524        37.29996        -0.51564
C         49.10183        38.04265        -0.35071
C         50.39968        40.22596        -0.36586
C         49.07217        39.50061        -0.50124
C         50.34818        41.65454         0.18722
C         49.08133        42.44113        -0.32276
C         50.40698        44.49240        -0.33115
C         49.10826        43.93646         0.21218
C         51.46649        29.43578         1.73871
C         52.74400        31.67529         1.33554
C         51.52054        30.92890         1.89637
C         52.61293        32.80926         0.83735
C         51.58070        33.69452         0.42109
C         52.74143        35.87072        -0.19397
C         51.62564        34.98980        -0.02083
C         52.72901        37.11339        -0.29926
C         51.65789        38.04632        -0.35578
C         52.77377        40.28121         0.02628
C         51.67227        39.41608        -0.15639
C         52.77313        41.55670        -0.02616
C         51.71821        42.44174        -0.10855
C         51.46258        43.81029        -0.23859
O         50.33845        36.34668        -1.66491
O         48.53572        35.71521         1.30849
O         41.57667        25.98779        -0.52981
O         43.42878        35.40359         1.16464
O         49.89178        39.96543        -1.66981
O         39.59637        37.51578         1.19251
O         48.98657        30.95216        -0.93800
O         42.12683        30.69001        -1.79264
O         36.56622        43.64440        -1.15819
O         47.00302        37.79166        -1.51779
O         45.25158        40.86859         1.81518
O         41.08282        41.93004        -1.22806
O         39.82796        29.81620         1.93538
O         48.21046        29.18522         1.56751
O         38.62708        27.24908        -0.64313
O         32.05971        34.10681         1.16243
O         47.30229        40.51706        -1.76607
O         45.91838        44.61025         1.45300
O         34.11118        43.71293        -1.10101
O         39.48441        30.68794        -1.52831
O         51.32693        31.32778         3.22486
H         52.04547        30.97055         3.78641
O         43.09178        45.82256         2.19727
H         42.85561        46.66933         2.64204
O         31.49627        43.28669        -2.09715
H         32.30737        43.84221        -2.13923
O         34.04609        34.89212        -2.43442
H         33.16207        34.51034        -2.67767
O         49.20992        43.89839         1.64568
H         48.90407        44.75390         2.01612
O         41.70781        48.08398         2.57186
H         41.51444        48.94649         2.99417
O         42.61479        41.64768         2.07852
H         43.45823        41.31873         2.47001
O         31.56012        31.51120         2.41487
H         30.71620        31.36259         2.88706
O         45.43760        37.10109         1.66214
H         44.68712        36.52818         1.95686
O         37.04567        31.69020         2.03773
H         36.28315        31.77749         2.64792
O         34.11957        38.01276         1.35542
H         33.35481        38.50271         1.72571
O         46.86562        28.92865        -1.93593
H         47.55467        29.48132        -2.36224
O         36.69410        38.17481        -2.30562
H         36.72167        37.24183        -2.63720
O         42.22052        30.26450         1.77971
H         41.43586        30.61930         2.26155
O         47.16923        34.35140        -2.15281
H         46.58700        33.95654        -2.85139
O         49.07502        42.49017        -1.73831
H         48.48636        41.74230        -2.07547
O         36.70533        35.17346        -2.47848
H         35.83676        34.87128        -2.84616
O         45.20961        36.00400        -1.87694
H         45.95569        36.56528        -2.20601
O         45.66224        28.72536         1.45392
H         44.87647        28.36036         1.93503
O         49.99115        33.48354         2.17981
H         50.50183        32.92988         2.81859
O         31.39661        34.71431        -2.38549
H         31.10447        35.44191        -2.97362
O         41.63571        46.95271        -0.95534
H         40.80442        47.39624        -1.23073
O         42.81871        33.33915        -2.47962
H         41.93322        33.06165        -2.83576
O         43.21671        27.73404         2.28959
H         42.76155        28.58776         2.50337
O         39.96339        40.13776         1.75158
H         39.92796        39.19040         2.02576
O         40.38318        36.16427        -2.12611
H         40.29064        35.30336        -2.59353
O         40.18996        33.03749        -2.49234
H         39.72582        32.21022        -2.76566
O         44.62479        45.58561        -1.90680
H         44.18437        46.36059        -2.31362
O         40.35198        27.30707         2.63026
H         39.57578        27.82201         2.96172
O         32.46605        31.37696        -1.14440
H         32.39472        30.39886        -1.19641
O         36.99688        31.08829        -1.53995
H         37.71243        30.97928        -2.20648
O         44.04308        32.99762         0.93732
H         44.68822        33.48256         1.50677
O         47.26908        39.32431         1.67164
H         46.73038        39.85333         2.30852
O         44.90002        27.09071        -1.77708
H         45.59171        27.54911        -2.30750
O         45.30147        32.83319        -2.51771
H         44.36222        32.82453        -2.83033
O         39.39654        39.54589        -1.82709
H         38.61394        39.21317        -2.32474
O         50.28503        41.47533         1.59574
H         50.07314        42.33866         2.02490
O         46.24841        34.58081         1.34906
H         47.01489        34.85138         1.91554
O         37.81201        28.66586         2.51976
H         37.74942        29.54255         2.95994
O         36.77517        46.67349         1.23294
H         36.03562        46.17639         1.65770
