         762
 CSIRO Nanostructure Databank - Neutral Graphene Oxide Data Set
C         23.68828        24.83331         3.20767
C         22.43109        25.51088         3.15563
C         23.61337        27.65170         2.70631
C         22.35309        26.83258         2.84201
C         23.42830        28.92373         1.90693
C         22.27830        29.72423         2.22085
C         22.93881        31.45469         0.60068
C         22.08528        30.96001         1.68569
C         22.95698        32.92501         0.37623
C         21.72112        33.64758         0.56681
C         22.82505        35.82202         0.35185
C         21.61963        34.99636         0.41942
C         22.78221        37.23898        -0.12250
C         21.57929        37.80539        -0.56772
C         22.76167        39.84142        -1.08716
C         21.58193        39.08866        -1.10636
C         22.83522        42.18159        -0.97579
C         21.64890        42.92218        -0.86354
C         22.87725        44.62277         0.31523
C         21.65489        44.09811        -0.12877
C         22.87034        45.99703         0.87901
C         21.83505        46.39861         1.84699
C         23.21066        48.29053         2.56943
C         22.01204        47.48989         2.63413
C         26.36334        23.56983         3.41981
C         26.10193        24.71693         2.65721
C         24.84851        25.43491         2.71510
C         25.79643        27.38197         1.51036
C         24.77342        26.80447         2.23622
C         25.71356        28.73654         1.01062
C         24.44046        29.42692         1.10192
C         25.36431        31.33581        -0.38678
C         24.20527        30.64588         0.29310
C         25.30128        32.89819        -0.57564
C         24.10766        33.59142        -0.00667
C         25.24927        35.85661        -0.47085
C         24.13900        35.05261         0.16468
C         25.26232        37.28851         0.03783
C         23.97372        38.00319        -0.17479
C         25.22778        40.21302        -0.58547
C         23.96399        39.36928        -0.53033
C         25.22829        41.67694        -0.06722
C         24.05171        42.59419        -0.40914
C         25.38331        44.58317         0.32256
C         24.08981        43.91882         0.11385
C         25.41234        45.93583         0.63272
C         24.18756        46.72339         0.93118
C         25.46204        48.79345         1.55653
C         24.28439        47.91957         1.81317
C         25.69329        50.03756         2.32165
C         28.67595        23.38888         2.57781
C         27.57703        22.89105         3.32961
C         28.50773        24.61219         1.83208
C         27.14774        25.17656         1.73654
C         28.14411        27.26037         0.58455
C         26.96545        26.57918         1.10676
C         28.06971        28.60165         0.19769
C         26.80517        29.32481         0.35907
C         27.77080        31.06734        -0.97550
C         26.66386        30.60123        -0.30530
C         27.72437        33.20692        -1.27759
C         26.52407        33.75057        -0.77800
C         27.78724        35.83306        -0.55225
C         26.57040        35.13012        -0.47167
C         27.82635        37.26770        -0.20701
C         26.54185        38.03553        -0.06120
C         27.82061        40.22792        -0.30717
C         26.53367        39.48907        -0.42140
C         27.75495        41.66164        -0.33882
C         26.56399        42.40029        -0.23583
C         27.82510        44.53865        -0.07476
C         26.61153        43.83863        -0.00826
C         27.94223        45.92233         0.41869
C         26.68672        46.65658         0.80864
C         27.94933        48.93652         0.85544
C         26.65211        48.16497         0.86976
C         28.06829        50.26112         1.59183
C         26.87659        50.68357         2.36703
C         31.34675        20.78685         3.13226
C         30.12989        21.42241         3.09766
C         31.10242        23.45141         2.02091
C         29.93416        22.72313         2.55533
C         30.88275        24.64202         1.15803
C         29.56744        25.20107         1.12211
C         30.59143        27.18900        -0.14486
C         29.34381        26.44245         0.34191
C         30.49174        28.63058        -0.39798
C         29.23485        29.25664        -0.34639
C         30.22207        31.43275        -1.08627
C         29.12563        30.62984        -0.77829
C         30.25741        32.95119        -0.89215
C         28.99375        33.78034        -1.12034
C         30.25681        35.89948        -0.99288
C         29.02314        35.16765        -0.81067
C         30.30456        37.29894        -0.88581
C         29.10107        38.02795        -0.40196
C         30.27998        40.16460        -0.63068
C         29.03896        39.51350        -0.48955
C         30.29149        41.61307        -0.36047
C         29.02364        42.37387        -0.59366
C         30.39626        44.59401        -0.44193
C         29.05603        43.88882        -0.55568
C         30.46215        45.99722         0.03735
C         29.16855        46.73005         0.10388
C         30.47170        48.81572         0.78162
C         29.18380        48.18545         0.45006
C         30.54682        50.12496         1.22011
C         29.43783        50.78909         1.91043
C         30.95148        52.15434         3.44295
C         29.67251        51.64839         2.96225
C         33.67557        19.06537         2.16987
C         33.77544        20.53136         2.17433
C         32.57685        21.40015         2.63531
C         33.52017        23.27623         1.15685
C         32.46123        22.78790         2.06347
C         33.29239        24.53196         0.34426
C         32.00135        25.28445         0.59529
C         33.04459        27.35525        -0.34400
C         31.91381        26.60322         0.07617
C         32.90547        28.69973        -0.84001
C         31.64513        29.33986        -0.81386
C         32.77661        31.53777        -1.53596
C         31.51370        30.74024        -1.26969
C         32.73063        33.02513        -1.49998
C         31.51628        33.66610        -1.37287
C         32.73115        35.90487        -1.70474
C         31.43036        35.14167        -1.50847
C         32.74186        37.35169        -1.37045
C         31.51466        38.03907        -1.05751
C         32.74287        40.19075        -0.90252
C         31.51398        39.47055        -0.85456
C         32.83148        41.59299        -0.64992
C         31.59887        42.31378        -0.26379
C         32.92907        44.41983         0.14679
C         31.65700        43.80149        -0.36323
C         32.95646        45.89432         0.35417
C         31.65182        46.61919         0.26891
C         33.03934        48.66943         0.96649
C         31.69114        48.00433         0.76972
C         33.05238        50.13413         1.13549
C         31.84112        50.76640         1.19201
C         33.41976        52.78538         2.78679
C         32.01874        52.36120         2.62068
C         33.65174        54.02465         3.43340
C         35.59072        18.88736         0.65767
C         34.50570        18.30291         1.41199
C         35.66224        20.32551         0.58287
C         34.74791        21.13649         1.24106
C         35.89127        23.19996         0.32160
C         34.65391        22.54821         0.90968
C         35.72442        24.63683        -0.10196
C         34.53460        25.43630         0.38820
C         35.36122        27.32129        -1.08711
C         34.32549        26.71627        -0.39669
C         35.31290        28.72340        -1.38295
C         34.09048        29.43320        -1.22360
C         35.27978        31.56831        -1.51933
C         34.06991        30.84331        -1.39931
C         35.25517        33.03715        -1.56409
C         34.00278        33.73788        -1.59550
C         35.22994        35.86679        -1.70060
C         34.01165        35.15353        -1.64205
C         35.18454        37.33691        -1.84211
C         33.94847        38.02314        -1.40820
C         35.29397        40.20069        -1.22627
C         34.00472        39.44069        -1.04285
C         35.19948        41.67707        -1.37415
C         34.01839        42.32053        -0.76388
C         35.37487        44.57079        -0.69116
C         34.17147        43.69683        -0.27316
C         35.31570        46.02882        -0.51312
C         34.21926        46.65341         0.09795
C         35.44972        48.82713         0.30068
C         34.24478        48.03833         0.40095
C         35.52553        50.11246         0.85913
C         34.36767        50.67848         1.66116
C         35.68515        52.85425         1.84897
C         34.44732        52.15765         2.04756
C         35.84815        54.17710         2.40622
C         34.84345        54.69546         3.25774
C         37.46717        16.01397        -0.87734
C         36.45553        16.72394        -0.25609
C         37.90028        18.78234        -0.24752
C         36.57074        18.11362         0.00358
C         37.78332        20.17793        -0.79113
C         36.55603        20.90366        -0.46265
C         37.67797        22.91823        -1.66317
C         36.52966        22.36290        -0.77557
C         37.69730        24.46595        -1.71072
C         36.68889        25.18913        -0.85704
C         37.82251        27.30419        -1.61557
C         36.54771        26.52459        -1.51095
C         37.76865        28.68256        -1.80645
C         36.52189        29.42348        -1.67172
C         37.77263        31.57787        -1.56566
C         36.49435        30.84219        -1.64441
C         37.76322        33.07839        -1.48702
C         36.46492        33.77565        -1.58830
C         37.73884        35.93234        -1.77686
C         36.47657        35.19445        -1.70447
C         37.76184        37.33724        -1.84644
C         36.49923        38.09293        -1.93008
C         37.70948        40.26539        -1.77914
C         36.52869        39.55319        -1.70006
C         37.72962        41.76467        -2.12697
C         36.40585        42.46217        -1.77094
C         37.69144        44.71698        -1.79494
C         36.41630        43.96002        -1.59023
C         37.69108        46.19679        -1.48321
C         36.38818        46.92638        -1.10075
C         37.84352        48.88032        -0.28209
C         36.62700        48.18799        -0.25970
C         37.93802        50.23392         0.14537
C         36.86796        50.75583         1.06862
C         37.77546        53.11003         0.53534
C         36.76168        52.25671         1.14345
C         37.88534        54.58217         1.01560
C         37.03735        54.94272         2.16026
C         38.35889        56.95701         2.49100
C         37.38466        56.05201         2.93868
C         39.46238        14.72364        -2.76522
C         39.80481        15.83172        -1.85878
C         38.69252        16.63663        -1.27740
C         40.12153        18.66688        -1.34901
C         38.88144        17.98875        -1.06028
C         40.19690        20.08287        -1.21372
C         38.96870        20.84737        -1.12738
C         40.24338        22.94080        -1.41135
C         39.00924        22.26922        -1.32321
C         40.30520        24.38149        -1.59840
C         39.06029        25.13018        -1.62571
C         40.28311        27.21471        -2.01255
C         39.02701        26.52311        -1.69432
C         40.27459        28.67028        -2.32874
C         38.97772        29.42221        -2.24857
C         40.26461        31.68189        -2.00964
C         38.99690        30.92310        -2.11113
C         40.26518        33.05378        -1.85420
C         39.02123        33.81450        -1.75688
C         40.25895        35.95771        -1.90311
C         38.98776        35.19635        -1.80125
C         40.24546        37.42244        -1.65466
C         38.97349        38.11899        -1.77992
C         40.16752        40.28882        -1.46614
C         38.93852        39.52269        -1.77973
C         40.19886        41.79704        -1.43573
C         38.95988        42.56695        -1.71896
C         40.23774        44.69172        -1.58863
C         38.97714        43.94205        -1.73181
C         40.25205        46.05246        -1.42948
C         39.00714        46.86372        -1.32452
C         40.19421        49.04605        -1.28766
C         39.14592        48.17273        -0.57683
C         40.23110        50.45604        -0.73399
C         39.09390        51.02352        -0.17069
C         40.20261        53.39543        -0.37011
C         38.98110        52.51878        -0.13143
C         40.24313        54.79580         0.14189
C         39.14597        55.34797         0.77470
C         40.50430        57.79356        -0.32033
C         39.11902        56.68596         1.35283
C         40.34010        58.90797        -1.15769
C         41.72164        14.71992        -3.67492
C         40.38620        14.19658        -3.60856
C         42.10175        15.80787        -2.93950
C         41.18365        16.47691        -1.97690
C         42.53888        18.57890        -1.44155
C         41.29543        17.93938        -1.64787
C         42.65574        19.97549        -1.14522
C         41.44564        20.75172        -1.21833
C         42.70938        22.85959        -1.15604
C         41.46470        22.18689        -1.25444
C         42.76503        24.28338        -1.34202
C         41.57134        25.02872        -1.64803
C         42.67191        27.36354        -2.30383
C         41.58325        26.56187        -1.58751
C         42.81585        28.71178        -2.18826
C         41.55107        29.47258        -2.35684
C         42.85129        31.64775        -2.02646
C         41.53190        30.95815        -2.26464
C         42.74597        33.07565        -1.63412
C         41.55065        33.74052        -1.72437
C         42.78257        35.92809        -1.32437
C         41.56131        35.21995        -1.78154
C         42.67799        37.38841        -1.09297
C         41.42597        38.09104        -1.46325
C         42.72401        40.33938        -1.31143
C         41.46970        39.56623        -1.58006
C         42.67269        41.81617        -1.18722
C         41.50737        42.49230        -1.46094
C         42.77190        44.63823        -1.31401
C         41.54240        43.94165        -1.87218
C         42.81391        46.10557        -1.47398
C         41.50012        46.85401        -1.54431
C         42.72294        48.97525        -1.17226
C         41.52344        48.30736        -1.26183
C         42.73855        50.46468        -1.18226
C         41.43794        51.24053        -1.04319
C         42.83733        53.33077        -0.31322
C         41.51319        52.71407        -0.70264
C         42.85119        54.77722         0.15879
C         41.56421        55.53012         0.15722
C         42.61406        57.27603        -1.36461
C         41.58310        56.90032        -0.46022
C         42.43462        58.37361        -2.21946
C         41.26914        59.14198        -2.16950
C         45.35651        15.95777        -1.78200
C         44.12287        16.62573        -1.99988
C         45.30565        18.59554        -0.47953
C         43.67448        17.69090        -1.23502
C         45.17280        20.01251        -0.61845
C         43.90581        20.66397        -0.84977
C         45.10296        22.79310        -0.53113
C         43.89876        22.09497        -0.85699
C         45.09239        24.21737        -0.48812
C         44.03209        24.91385        -1.04659
C         45.14560        27.15889        -0.70982
C         44.31919        26.29341        -1.37746
C         45.00881        28.69501        -0.79855
C         44.23779        29.31219        -2.06135
C         45.43280        31.60760        -1.54795
C         44.14710        30.87154        -1.95223
C         45.22315        33.00431        -0.92895
C         43.94362        33.76553        -1.09905
C         45.15906        35.96686        -0.58773
C         43.92606        35.24981        -1.02617
C         45.22521        37.44181        -0.73097
C         43.93415        38.16667        -0.79982
C         45.11022        40.33553        -0.66936
C         43.96141        39.63718        -0.93398
C         45.06852        41.78313        -0.56781
C         43.91255        42.50228        -0.86524
C         45.06436        44.72167        -0.39581
C         43.87097        43.96108        -0.85965
C         45.17689        46.16393        -0.71315
C         44.01223        46.86153        -1.08353
C         45.22154        48.98011        -0.92606
C         43.98878        48.27047        -1.08104
C         45.21963        50.40498        -0.91522
C         44.01161        51.14413        -0.83380
C         45.32983        52.94494         0.10588
C         44.04108        52.44579        -0.28870
C         45.30224        55.14450         0.12938
C         44.07257        55.54881        -0.24059
C         45.05686        56.70805        -2.15605
C         44.02415        56.82079        -1.05269
C         46.44430        16.51698        -1.12061
C         47.73701        18.61830        -0.55401
C         46.49977        17.87749        -0.70652
C         47.68017        20.03544        -0.42044
C         46.40803        20.73924        -0.51949
C         47.57869        22.95682        -0.25534
C         46.34851        22.13971        -0.39570
C         47.51133        24.34807         0.22510
C         46.19268        24.98043         0.14078
C         47.36072        27.24220         0.59614
C         46.10862        26.50185         0.21075
C         47.36866        28.78099         0.34016
C         46.34995        29.37762        -0.52154
C         47.57180        31.65189        -0.22417
C         46.34923        30.84024        -0.61305
C         47.66936        33.07841        -0.62682
C         46.50409        33.76143        -0.78849
C         47.74871        35.97759        -0.59711
C         46.47703        35.22586        -0.58744
C         47.68714        37.40652        -0.49163
C         46.40867        38.11608        -0.60347
C         47.55195        40.25227         0.06081
C         46.45425        39.62904        -0.79459
C         47.55585        41.74458         0.22588
C         46.26453        42.47122        -0.01095
C         47.61982        44.63741        -0.02677
C         46.30784        43.96428        -0.02649
C         47.57056        46.11156         0.01272
C         46.37845        46.85752        -0.46457
C         47.69960        48.98159        -0.57333
C         46.43483        48.25881        -0.66943
C         47.74248        50.38094        -0.72612
C         46.50897        51.15534        -1.11340
C         47.74040        53.28209        -0.47671
C         46.51129        52.49775        -0.44092
C         47.76539        54.70166        -0.47378
C         46.58268        55.68909        -0.45549
C         46.25957        56.19368        -1.86251
C         50.12038        18.65173        -0.09896
C         48.97242        17.95004        -0.42773
C         50.09049        20.05148         0.03200
C         48.88745        20.74454        -0.16328
C         50.02980        22.95973         0.46032
C         48.89406        22.22711        -0.14509
C         49.91167        24.33754         0.73972
C         48.67690        25.07523         0.55583
C         49.84853        27.27842         0.90413
C         48.63386        26.51891         0.73207
C         49.92477        28.65614         0.71933
C         48.70117        29.47249         0.53715
C         50.13008        31.54191        -0.12274
C         48.80315        30.93875         0.21296
C         50.23536        33.03628        -0.38401
C         48.98668        33.78498        -0.87380
C         50.16352        35.93877        -0.17151
C         48.96640        35.25852        -0.46984
C         50.15198        37.40433        -0.26833
C         48.88098        38.12221        -0.34390
C         50.09837        40.31703         0.24719
C         48.85319        39.53173         0.08959
C         50.05894        41.76702         0.19754
C         48.85005        42.47969         0.16836
C         50.09368        44.64224        -0.00270
C         48.82329        43.92878         0.07853
C         50.10617        46.02072        -0.14054
C         48.90348        46.84749        -0.02318
C         50.14379        48.96876        -0.51547
C         48.92660        48.27937        -0.40751
C         50.18424        50.38255        -0.59135
C         48.95910        51.10186        -0.63597
C         50.21467        53.23322        -0.67919
C         48.96946        52.55437        -0.62209
C         50.20603        54.64709        -0.66867
C         49.01398        55.34562        -0.58716
C         52.60994        20.29428        -0.13019
C         51.33181        20.74881         0.53195
C         52.46668        22.93716         0.85384
C         51.25695        22.25582         0.58137
C         52.38047        24.28912         1.43654
C         51.06544        25.02916         1.35434
C         52.39730        27.21997         1.26246
C         51.05589        26.54356         1.38367
C         52.47151        28.67847         0.96897
C         51.16769        29.45444         1.11940
C         52.50898        31.58068         0.84285
C         51.31370        30.79202         0.37030
C         52.49874        33.06853         0.89280
C         51.40852        33.79762         0.16742
C         52.44381        35.95946         0.83852
C         51.37071        35.28155         0.27583
C         52.41164        37.42604         0.95550
C         51.36362        38.17286         0.21310
C         52.55241        40.32626         0.54018
C         51.28696        39.63821         0.41897
C         52.53895        41.72795         0.19410
C         51.33802        42.44458         0.07489
C         52.56617        44.56361        -0.10620
C         51.35317        43.88799        -0.06536
C         52.60227        46.03180         0.01043
C         51.36724        46.72940        -0.42944
C         52.69743        48.93154        -0.46119
C         51.40870        48.21132        -0.59382
C         52.69157        50.35406        -0.58368
C         51.45313        51.07842        -0.63455
C         52.72103        53.15589        -0.78964
C         51.46350        52.48900        -0.71470
C         53.74155        21.01992         0.01595
C         54.95546        23.05559         0.85196
C         53.72363        22.32394         0.65301
C         54.93037        24.40939         1.20010
C         53.67694        25.03395         1.65334
C         54.89338        27.30031         1.86330
C         53.61737        26.52844         1.80248
C         54.88092        28.76453         1.57432
C         53.75942        29.42242         1.19195
C         55.04604        31.67706         1.11841
C         53.82678        30.85565         0.66628
C         54.90672        33.12967         1.44882
C         53.75671        33.81643         1.19767
C         54.85721        36.06092         1.71410
C         53.54334        35.26570         1.64065
C         54.92866        37.41152         1.50496
C         53.68900        38.21552         1.27933
C         55.00618        40.39257         0.92906
C         53.72928        39.64368         0.86915
C         55.08726        41.71660         0.27974
C         53.83036        42.35511        -0.12360
C         55.12514        44.60495        -0.10287
C         53.84579        43.88318        -0.27839
C         55.15049        46.01055        -0.13708
C         53.89596        46.77796        -0.04127
C         55.15789        48.88892        -0.48271
C         53.89514        48.22380        -0.35818
C         55.16861        50.31281        -0.60746
C         53.94139        51.04527        -0.63568
C         53.90990        52.46705        -0.75730
C         57.41766        23.02400         0.93003
C         56.23390        22.37348         0.78750
C         57.48977        24.48830         0.89033
C         56.14284        25.23017         1.10796
C         57.45924        27.21270         2.07802
C         56.16003        26.59976         1.62116
C         57.41241        28.73788         2.15277
C         56.13703        29.48375         1.90126
C         57.37438        31.66613         2.28468
C         56.25034        30.94835         1.61895
C         57.30279        33.03239         2.41917
C         56.03711        33.78490         2.16920
C         57.33115        35.98882         2.42482
C         56.01308        35.30224         2.30707
C         57.42385        37.26232         1.90786
C         56.19788        38.17321         1.90897
C         57.51887        40.32651         0.73116
C         56.30409        39.64907         1.28301
C         57.53265        41.72498         0.49574
C         56.28839        42.43287         0.26888
C         57.57578        44.56662         0.00524
C         56.33106        43.85980        -0.00072
C         57.59263        45.97229        -0.12761
C         56.37967        46.72196        -0.23662
C         57.62772        48.81705        -0.96517
C         56.37124        48.13698        -0.46853
C         57.60922        50.30399        -0.73358
C         56.44960        50.98733        -0.61919
C         59.98795        24.62876         1.00189
C         58.76504        25.21670         1.14861
C         59.95638        27.48341         1.43187
C         58.67273        26.68703         1.33208
C         59.91641        28.86568         1.99969
C         58.67875        29.51993         2.14979
C         59.81859        31.58659         2.77337
C         58.61720        30.91023         2.45243
C         59.75888        32.98963         3.23213
C         58.42606        33.77449         3.03096
C         59.68677        35.84230         3.32407
C         58.50019        35.24600         2.90057
C         59.89477        37.80255         2.17534
C         58.70786        37.79358         1.49708
C         59.99552        40.26117         0.51096
C         58.73563        39.65117         0.46875
C         60.02138        41.69451         0.42801
C         58.78812        42.41128         0.32364
C         60.06902        44.50781         0.09955
C         58.82280        43.83197         0.14631
C         60.13211        45.94950        -0.08276
C         58.87167        46.70047        -0.04411
C         60.18270        48.69543        -0.94449
C         58.90690        48.18009        -0.45288
C         61.20802        25.37719         1.16117
C         61.21048        26.71467         1.39487
C         61.09817        29.58382         2.25103
C         61.04430        30.90611         2.67498
C         60.98579        33.77650         3.34898
C         60.91037        35.12161         3.52254
C         61.11599        38.39068         1.69299
C         61.16394        39.47548         0.85176
C         61.24866        42.40211         0.41240
C         61.26946        43.76754         0.24801
C         61.31472        46.63006        -0.30899
C         61.33265        47.98117        -0.76556
O         46.97574        28.19764         1.63611
O         38.31241        46.93648        -2.60376
O         46.66175        42.05149         1.34850
O         27.62503        32.01326        -1.98411
O         37.17634        54.22678        -0.20030
O         58.86128        47.80259         0.94202
O         50.96507        30.74847        -1.03166
O         47.92777        39.59035         1.28378
O         35.32919        43.85451         0.60095
O         46.47713        31.45073         0.71640
O         30.92249        41.87971         0.96154
O         53.01012        24.32903         2.75698
O         23.23619        46.96302        -0.16566
O         23.74624        35.55916         1.46528
O         39.69449        57.78276         0.80577
O         52.16426        32.25408         2.08365
O         42.30719        39.96639        -2.71283
O         32.94506        44.94826         1.49550
O         28.71147        37.54152         0.94005
O         55.60092        34.45699         3.42355
O         32.09583        23.77339         3.09208
O         34.93684        39.71347         0.10894
O         36.72552        44.53742        -2.89008
O         43.03612        37.74456         0.30520
O         55.64316        40.51871         2.26089
O         26.65378        25.35462         0.36483
O         39.22673        53.13917        -1.43188
O         23.02082        30.57495        -0.55930
O         22.74058        41.04714        -1.78184
O         43.40039        16.26395        -3.15655
O         45.40272        54.03898         0.98836
O         45.66186        25.69130         1.33686
O         31.78769        52.16051         1.24093
O         45.72721        35.50309         0.67385
O         37.19016        24.85396        -3.06744
O         46.87114        39.90101        -2.11874
O         27.83210        50.19789         0.14477
O         48.16906        46.65745         1.23556
O         43.72217        31.47108        -3.21798
O         51.43756        47.29610        -1.78426
O         27.55956        46.08037         1.84636
O         33.73886        21.17669         3.49169
O         25.01302        31.94855        -1.64890
O         35.67151        21.49119        -1.54152
O         54.10070        26.97037         3.10395
O         31.87327        35.58909        -2.84377
O         38.73247        30.29332        -3.40595
O         32.39326        47.98034         2.10317
O         53.86523        42.98519        -1.44383
O         41.86732        26.82201        -0.23953
O         35.69129        37.79689        -3.14789
O         42.27488        55.22791         1.42918
O         42.29424        53.42250        -1.70015
O         40.03437        41.00175        -0.18168
O         48.67762        30.52013         1.60808
O         28.95362        43.16357        -1.82018
O         56.79131        25.09003        -0.23534
O         31.23880        44.36786        -1.63511
O         43.80983        26.64282        -2.61567
O         56.56429        29.17525         3.27432
O         44.31444        33.09841         0.19096
O         51.24641        37.85433        -1.20035
O         59.85121        37.23751         3.47561
O         25.98029        39.85065        -1.77037
O         59.13978        27.44564         0.18915
O         44.23518        17.85242         0.05209
O         29.05517        47.72312        -0.96092
O         41.06405        35.65887        -3.10702
O         41.54824        30.29916        -3.58201
O         48.48172        22.80964        -1.43060
O         52.65390        37.94586         2.29104
O         51.37104        33.35322        -1.24331
O         58.81964        33.23500         4.32512
O         56.17182        31.35677         0.20707
O         40.85525        15.58661        -0.84941
O         29.76035        26.37724        -1.05555
O         58.68601        38.27754         0.17100
O         50.79032        25.78196         2.58387
O         42.26427        46.53807        -2.77421
O         53.18330        46.52361         1.26180
O         36.31710        26.04363        -2.91773
O         45.39875        44.49497         1.01782
O         35.38515        42.10471        -2.77901
O         32.00990        30.96510        -2.65790
O         52.55472        27.70986        -0.12050
O         37.93003        32.23259        -0.26714
O         40.28417        27.66457        -3.40906
O         25.95257        37.67076         1.24747
O         25.64772        48.83568         0.08589
O         42.02145        50.97168        -2.36417
O         34.74181        25.80950         1.77129
H         35.45007        26.48518         1.81148
O         57.64455        26.73804         3.44916
H         56.98516        27.21693         4.00326
O         49.08212        33.82823        -2.32495
H         50.04099        33.86914        -2.55155
O         37.82067        41.74465        -3.57535
H         36.90169        41.77103        -3.93110
O         53.91622        30.71090        -0.77042
H         54.86762        30.59336        -0.99749
O         56.03362        38.36239         3.33449
H         55.50934        39.18739         3.47460
O         30.39133        33.01160         0.59095
H         30.33711        33.95440         0.86339
O         24.91435        36.00645        -1.88609
H         24.93439        35.12112        -2.30907
O         25.07528        41.45404         1.37531
H         25.15314        42.31888         1.83140
O         34.52209        50.03298         2.99619
H         34.16414        49.11772         2.93712
O         57.65721        48.60875        -2.42050
H         56.87216        49.05555        -2.80265
O         41.68134        43.93265        -3.32381
H         41.79009        44.87387        -3.60450
O         39.69008        47.81866         0.72745
H         39.38287        48.47657         1.38781
O         37.31060        50.31815         2.43211
H         36.48737        50.21297         2.97297
O         44.18055        29.08017         0.32366
H         44.57662        28.71889         1.14751
O         23.94174        28.09274         4.07732
H         24.01611        27.28588         4.63040
O         46.62009        51.39477        -2.56606
H         46.54639        50.52742        -3.01776
O         51.43860        20.32560         1.94054
H         52.19257        20.81087         2.34006
O         35.81178        47.44038        -2.33432
H         36.56627        47.62823        -2.94273
O         33.17185        24.04890        -1.02679
H         32.86455        24.78812        -1.59448
O         46.20537        31.79031        -2.75369
H         45.56717        31.91149        -3.49514
O         44.49436        57.90093        -0.18422
H         43.97795        57.86425         0.64804
O         45.03612        29.02360        -3.20622
H         44.59257        29.42373        -3.98485
O         37.45929        22.45208        -3.00945
H         36.61444        21.93859        -3.01233
O         51.08314        29.72871         2.53060
H         50.19937        30.13335         2.70645
O         38.51690        18.92346         1.09190
H         38.76518        18.02472         1.39758
O         39.80797        49.19170        -2.67133
H         40.47083        49.78405        -3.09675
O         46.99303        56.83697         0.32765
H         47.03922        56.55903         1.26576
O         53.01846        35.19745         2.98896
H         53.75173        34.88034         3.57101
O         36.87888        23.18942         1.39552
H         36.47865        23.62050         2.18101
H         23.70531        23.78298         3.52849
H         21.51642        24.93415         3.35568
H         21.37444        27.33172         2.80735
H         21.60876        29.38015         3.02152
H         21.30905        31.61808         2.10014
H         20.80103        33.05724         0.68159
H         20.62693        35.46555         0.38062
H         20.64710        37.22574        -0.55666
H         20.67612        39.51305        -1.55713
H         20.72976        42.54217        -1.32660
H         20.72815        44.66812         0.01980
H         20.94652        45.76200         1.96860
H         23.24696        49.20892         3.17237
H         21.23254        47.78243         3.35168
H         25.59183        23.17842         4.09779
H         24.86043        50.42136         2.92956
H         27.70178        21.97675         3.92422
H         26.95747        51.58387         2.99379
H         31.42188        19.80723         3.62387
H         29.26492        20.88984         3.51682
H         31.02811        52.38866         4.51439
H         28.81026        51.92240         3.59150
H         32.92502        18.58547         2.81291
H         32.84130        54.47919         4.01971
H         34.40824        17.20845         1.44000
H         34.97003        55.68290         3.71974
H         37.33194        14.93931        -1.06000
H         35.52251        16.20189         0.00132
H         38.46097        57.93671         2.97422
H         36.81166        56.30324         3.84028
H         38.42096        14.37474        -2.79597
H         39.48183        59.57479        -1.00749
H         42.44477        14.26360        -4.36253
H         40.11396        13.36978        -4.27889
H         43.24235        58.65336        -2.90935
H         41.13578        59.98941        -2.85491
H         45.50881        15.00473        -2.30835
H         44.83189        57.08497        -3.16483
H         47.37955        15.93912        -1.13505
H         47.04848        56.13497        -2.62700
H         51.05792        18.10696         0.07535
H         49.01751        16.85700        -0.51876
H         51.14324        55.21467        -0.72875
H         49.03142        56.44465        -0.59542
H         52.64234        19.31734        -0.63313
H         52.75700        54.24931        -0.87816
H         54.68617        20.64655        -0.40350
H         54.84749        53.03401        -0.82486
H         58.34512        22.44888         1.06204
H         56.23446        21.27481         0.76398
H         58.56662        50.84473        -0.73550
H         56.48280        52.07949        -0.50539
H         60.06754        23.55137         0.79902
H         60.19679        49.64079        -1.50513
H         62.15935        24.82825         1.12320
H         62.16215        27.22550         1.59689
H         62.07760        29.09953         2.14714
H         61.98451        31.41639         2.92001
H         61.96559        33.28151         3.33438
H         61.81899        35.71258         3.70106
H         62.05844        38.01249         2.11667
H         62.15600        39.89231         0.62426
H         62.19650        41.85852         0.51485
H         62.23791        44.28311         0.23965
H         62.27474        46.09739        -0.29140
H         62.29342        48.40353        -1.09271
