         274
 CSIRO Nanostructure Databank - Neutral Graphene Oxide Data Set
C        -11.01940         0.58798         1.11860
C         -9.75521         1.42540         1.05855
C         -8.66687         0.70614         0.27167
C         -7.41367         1.47149         0.01532
C         -6.12604         0.74601        -0.16956
C         -4.81294         1.51091        -0.25984
C         -3.71582         0.75058        -0.98548
C         -2.59114         1.53559        -1.57162
C         -1.25525         0.84475        -1.76088
C          0.02899         1.61554        -1.50186
C          1.31187         0.93141        -1.32397
C          2.58740         1.62730        -1.28041
C          3.75653         0.72353        -0.84806
C          5.05605         1.55714        -0.78530
C          6.18155         0.68333        -0.22631
C          7.25351         1.37036         0.56204
C          8.42460         0.61798         1.11611
C          9.71865         1.35825         1.23230
C         10.93550         0.56961         1.32475
C         -9.98671         2.86036         0.51321
C         -8.69458         3.67333         0.39462
C         -7.39189         2.93933         0.30648
C         -6.15223         3.68358        -0.07468
C         -4.93486         2.99071        -0.58383
C         -3.84709         3.71203        -0.96993
C         -2.62487         3.03346        -1.49237
C         -1.34974         3.74656        -1.08626
C         -0.07481         2.98933        -0.93806
C          1.22773         3.57364        -0.38808
C          2.54821         3.10859        -0.99584
C          3.80674         3.81741        -0.46890
C          4.87643         2.83635         0.08705
C          6.17280         3.63684         0.15748
C          7.42668         2.84944         0.37970
C          8.51730         3.56640         1.16691
C          9.76837         2.72023         1.19911
C         -8.72833         5.02810         0.34400
C         -7.55355         5.85868        -0.05250
C         -6.28300         5.14401        -0.37254
C         -4.98665         5.89075        -0.36876
C         -3.83675         5.20567        -1.04631
C         -2.56057         5.99816        -1.20655
C         -1.25907         5.24730        -1.16606
C          0.01557         5.93137        -0.75325
C          1.09813         5.08922        -0.10007
C          2.29402         5.76425         0.49173
C          3.58592         4.98366         0.52121
C          4.85763         5.71741         0.85026
C          6.14955         5.05700         0.53309
C          7.37451         5.76947         0.63609
C          8.70593         5.00338         0.62037
C         -7.46974         7.31193         0.25512
C         -6.30524         8.02577         0.17355
C         -5.00784         7.35263        -0.12916
C         -3.82666         8.19092        -0.51149
C         -2.53178         7.48701        -0.89168
C         -1.28417         8.14717        -0.48943
C          0.07332         7.48576        -0.63648
C          1.06330         8.04490         0.39076
C          2.28035         7.26328         0.75006
C          3.57703         8.02854         1.05436
C          4.83699         7.22238         0.63253
C          6.13110         7.95067         1.08744
C          7.37604         7.14191         0.80472
C         -6.20840         9.43855         0.49950
C         -5.02669        10.12421         0.50208
C         -3.76520         9.54261         0.08404
C         -2.56411        10.20698         0.09514
C         -1.29810         9.52969        -0.15302
C         -0.09768        10.24516         0.03573
C          1.17371         9.57523         0.47901
C          2.51175        10.03711        -0.05686
C          3.63665         9.35962         0.28728
C          4.96851         9.91599         0.04149
C          6.11655         9.31233         0.41502
C        -11.00436        -0.75561         1.11585
C         -9.75336        -1.54918         0.91951
C         -8.56851        -0.79348         0.43227
C         -7.18853        -1.29138         0.80356
C         -6.08714        -0.60542        -0.00779
C         -4.91142        -1.35733        -0.51329
C         -3.66957        -0.60747        -0.86014
C         -2.46250        -1.39772        -1.26771
C         -1.20442        -0.60059        -1.40780
C          0.00636        -1.06384        -1.00405
C          1.29985        -0.51774        -1.44772
C          2.53805        -1.34778        -1.69480
C          3.90391        -0.54124        -1.75047
C          5.26541        -1.41822        -1.42492
C          6.24487        -0.64738        -0.49103
C          7.47080        -1.41670        -0.09117
C          8.39152        -0.91243         1.03281
C          9.75593        -1.56859         0.93854
C         10.94602        -0.78232         1.20639
C         -9.51935        -2.81017         1.75520
C         -8.29239        -3.60437         1.32088
C         -7.10263        -2.80837         0.89142
C         -5.98284        -3.56889         0.28562
C         -4.89686        -2.84795        -0.45635
C         -3.56293        -3.56333        -0.33228
C         -2.43596        -2.91172        -1.12222
C         -1.19194        -3.75136        -1.23797
C          0.03005        -3.22965        -0.99540
C          1.28878        -3.71691        -1.55263
C          2.54584        -2.88800        -1.60329
C          3.85043        -3.62346        -1.29816
C          5.01217        -2.79691        -0.72598
C          6.31446        -3.67585        -0.77810
C          7.54501        -2.89230        -0.32181
C          8.69832        -3.74207         0.20612
C          9.85167        -2.89659         0.67523
C         -8.18566        -4.94630         1.48356
C         -6.89422        -5.73849         1.23546
C         -6.20052        -5.05490        -0.02456
C         -4.89642        -5.69569        -0.47223
C         -3.70251        -5.04465        -0.62066
C         -2.39622        -5.81885        -0.69279
C         -1.27714        -5.23672        -1.57828
C          0.01600        -5.94235        -1.12337
C          1.27722        -5.30446        -1.42060
C          2.60653        -5.93168        -1.06662
C          3.74556        -4.99803        -0.77849
C          4.75269        -5.33174         0.15684
C          6.07277        -4.89308         0.10862
C          7.11649        -5.60092         0.85571
C          8.31162        -4.89179         1.09661
C         -7.08633        -7.26337         1.23574
C         -6.54719        -8.16925         0.37980
C         -4.95883        -7.09732        -0.83025
C         -3.86056        -7.86345        -1.00745
C         -2.50872        -7.31114        -0.96573
C         -1.29885        -8.07642        -0.53351
C         -0.04325        -7.23178        -0.40969
C          1.23546        -8.01436        -0.24814
C          2.54229        -7.37942        -0.62357
C          3.68730        -8.12218        -0.02804
C          4.65983        -7.48557         0.64131
C          6.08819        -7.94706         0.59180
C          7.02798        -6.96610         1.25557
C         -6.24439        -9.57064         0.74733
C         -5.11425       -10.31258         0.55959
C         -3.85099        -9.92843        -0.10363
C         -2.61638       -10.17701         0.41357
C         -1.31870        -9.35514         0.32131
C         -0.01673       -10.12236         0.08793
C          1.17902        -9.50386        -0.09644
C          2.47269       -10.34247        -0.03880
C          3.83182        -9.60121        -0.30770
C          4.98391       -10.15223         0.54580
C          6.03108        -9.41608         0.96586
O         -9.32526        -1.62344        -0.48472
O          1.17910         7.50266         1.71488
O         -4.62707         6.40305         0.95675
O          1.69860        -0.99226        -2.82242
O         -0.23538         5.59978        -2.15442
O          3.43226        -3.38242        -2.65279
O         -8.40000         1.19297        -1.06939
O          4.11899         4.96707         1.88672
O         -1.65008        -8.00637        -1.94434
O          1.22531         5.21174         1.33595
O         -6.21808        -7.73312        -0.92370
O         -5.28710        -2.23354        -1.68872
O          0.10730        -2.13751        -0.12740
O         -0.51286         1.37939        -2.87464
O         -5.89975        -3.17737         1.70678
O          4.39997        -6.22330         1.17617
O         -6.43027         3.34194         1.34305
O         -3.36591         8.20172        -1.88727
O          7.34563         1.08258         2.01579
O          0.66295        -7.26311         0.89563
O         -7.16129         5.51520        -1.46390
O          2.66940         2.67467        -2.35415
O          1.14494        -4.57507        -2.69762
O          2.82003        -7.05600        -2.02087
O          7.14691         3.35701        -0.93814
O          8.11069        -1.95509        -1.28737
O         -2.86673         2.37803        -2.75708
O         -2.76529        -2.30492        -2.39706
O         -3.41192         5.70044        -2.34980
O          5.88681        -1.64873        -2.64128
O         -1.02350         3.13399         0.20648
O         -4.01194        -9.21533        -1.30928
O          4.70040        -2.49571         0.64727
H          4.76382        -3.31435         1.18669
O          9.18303        -4.49224        -0.96270
H          8.44336        -4.51930        -1.62195
O         -1.57556        -5.45940        -2.95336
H         -0.79884        -5.16731        -3.48037
O          8.03802         3.71293         2.52594
H          7.80876         2.80935         2.85082
O          6.18919         8.13385         2.51920
H          5.29458         8.42528         2.82651
O          4.40648         4.48661        -1.60474
H          4.73173         3.76488        -2.21030
O         -4.35645         1.52553         1.14094
H         -4.98729         2.10506         1.63824
O         -6.03481        -5.60585         2.38981
H         -6.08618        -4.67775         2.71552
O         -7.00554        -0.82275         2.17648
H         -6.17474        -1.22837         2.51288
O          6.44651        -7.92841        -0.84020
H          6.43769        -6.99415        -1.14681
O         -7.13263        -5.10426        -1.11539
H         -7.15619        -6.03432        -1.44036
O         -9.30186        -2.38194         3.11166
H         -8.52401        -1.77337         3.11044
O          4.16071        -9.82226        -1.68970
H          4.96793        -9.29527        -1.88506
O         -3.15285        -3.39686         1.06708
H         -3.91652        -3.62902         1.64398
O         -1.25206        -8.88921         1.70261
H         -0.52069        -8.22459         1.77140
O          0.64034         7.96246        -1.88386
H          0.17788         7.49499        -2.61757
O         -9.24011         1.53896         2.40999
H         -9.98225         1.74863         3.01400
O          4.53395         2.40082         1.41152
H          4.38401         3.20172         1.97728
O          1.24377         9.93013         1.90727
H          0.48940         9.49021         2.35729
O          3.57663         8.32489         2.46035
H          2.73949         8.82671         2.63052
O          4.82055         7.29799        -0.82624
H          4.92797         6.40122        -1.22544
O          4.06952        -0.09289        -3.08533
H          4.75212        -0.72279        -3.47578
O          2.51239       -10.96021         1.25484
H          2.35358       -10.27615         1.93698
O          6.54869        -4.11456        -2.12442
H          6.44908        -3.26817        -2.66816
O          1.37413         2.89772         0.89261
H          0.60121         3.14168         1.45182
O        -10.61915         2.79560        -0.76438
H        -10.01393         2.30954        -1.37175
O          3.39303         0.21863         0.44575
H          3.60637         0.90566         1.12648
O         -1.90249        -5.76446         0.68308
H         -2.10187        -4.86675         1.05384
O          5.35750         2.00084        -2.11799
H          5.02814         1.30122        -2.75289
O          9.27990         4.98504        -0.68242
H          8.65720         4.50546        -1.27717
O          7.80465        -1.41651         2.25990
H          7.22466        -0.70038         2.61327
H         11.90316        -1.32258         1.25902
H         11.87895         1.11352         1.47738
H         10.74384         3.22473         1.27443
H          9.42095         5.54477         1.28892
H          8.34009         7.65853         0.93574
H          7.07888         9.82177         0.25428
H          5.00677        10.90804        -0.43597
H          2.58256        11.00557        -0.57502
H         -0.17403        11.32289         0.25144
H         -2.52270        11.24891         0.44777
H         -5.02057        11.18017         0.81154
H         -7.13245         9.95785         0.79391
H         -8.39511         7.82440         0.56142
H         -9.69281         5.54698         0.46517
H        -10.69043         3.39592         1.20298
H        -11.97515         1.12114         1.24278
H        -11.94741        -1.31387         1.22798
H        -10.42708        -3.46241         1.75091
H         -9.06050        -5.50224         1.85850
H         -7.35623        -7.63526         2.23821
H         -6.99170       -10.01966         1.42493
H         -5.08097       -11.27361         1.10139
H         -2.61414       -10.78682         1.33330
H         -0.02671       -11.21448         0.23186
H          2.39675       -11.17236        -0.78539
H          4.96082       -11.22975         0.76957
H          6.85480        -9.87788         1.53239
H          7.88167        -7.36775         1.82618
H          9.11202        -5.38307         1.67352
H         10.84486        -3.37190         0.65163
