         324
 CSIRO Nanostructure Databank - Neutral Graphene Oxide Data Set
C          1.23754         3.80376         1.81057
C          0.04137         3.85388         1.11273
C          0.95144         5.66073        -0.22404
C         -0.09320         4.76964         0.06557
C          0.82480         7.87539        -1.04726
C         -0.35253         8.61130        -1.03170
C          0.93589        10.66010        -1.16101
C         -0.28764        10.01103        -0.98603
C          0.98988        12.11153        -1.29640
C         -0.06433        12.95190        -0.87562
C          1.02689        14.91097        -1.80727
C         -0.01329        14.33421        -1.05159
C          1.23021        16.37409        -1.88264
C          0.08622        17.19136        -1.88534
C          1.39502        19.17378        -1.37136
C          0.16845        18.56612        -1.70153
C          1.46040        20.56497        -0.97016
C          0.35028        21.46470        -1.21850
C          1.41026        23.30233         0.03008
C          0.34763        22.76699        -0.83254
C          1.54823        24.76842         0.28671
C          0.41392        25.59681         0.24650
C          1.72941        27.50209         0.98022
C          0.49483        26.93875         0.60556
C          1.81736        28.89064         1.39286
C          3.57874         4.36709         2.08446
C          2.32432         4.65346         1.47252
C          3.32384         6.59226         0.18129
C          2.17676         5.66885         0.46858
C          3.32965         7.76566        -0.78673
C          2.10947         8.48973        -1.02321
C          3.37304        10.50645        -1.68489
C          2.14413         9.89598        -1.28589
C          3.32779        11.88311        -2.23279
C          2.09971        12.67769        -1.97026
C          3.87985        14.95061        -2.37295
C          1.96597        14.02254        -2.35858
C          3.76272        16.25397        -1.75753
C          2.51532        16.99125        -1.72755
C          3.81184        18.95518        -0.88757
C          2.57937        18.37443        -1.34686
C          3.84514        20.28360        -0.35303
C          2.63212        21.06435        -0.40326
C          3.94162        23.01193         0.52245
C          2.61477        22.40453         0.20458
C          4.01955        24.47159         0.77914
C          2.79217        25.31942         0.67744
C          4.23296        27.33577         1.17137
C          2.88324        26.68497         0.99425
C          4.20013        28.66319         1.89625
C          2.97778        29.42854         1.86072
C          6.01375         4.64641         2.16112
C          4.75586         4.96298         1.63580
C          5.90934         6.46916        -0.02957
C          4.65880         6.12147         0.71492
C          5.82813         7.69793        -0.92262
C          4.54071         8.42588        -1.06305
C          5.85748        10.42454        -1.82198
C          4.57357         9.77053        -1.57799
C          5.92525        11.77398        -2.15537
C          4.73115        12.59209        -2.42567
C          6.05801        14.50503        -1.36479
C          4.87221        14.03658        -2.12330
C          6.09701        15.95137        -0.97064
C          4.92337        16.79860        -1.20002
C          6.22827        18.71783        -0.36972
C          4.99000        18.16365        -0.80665
C          6.24871        20.04196         0.15274
C          5.03545        20.78478         0.23514
C          6.27297        22.67614         1.47029
C          4.93185        22.02870         1.12112
C          6.37671        24.13788         1.64084
C          5.09490        24.93718         1.74472
C          6.49528        26.96000         2.14216
C          5.30946        26.42298         1.69999
C          6.57030        28.37373         2.49084
C          5.35799        29.15975         2.43673
C          8.41058         5.08089         2.42269
C          7.21311         5.25674         1.68218
C          8.47152         6.32129        -0.27835
C          7.20413         6.05279         0.51569
C          8.33645         7.66359        -1.02710
C          7.11113         8.37405        -1.17863
C          8.35810        10.34322        -1.94910
C          7.10183         9.70205        -1.64459
C          8.45484        11.70458        -2.20395
C          7.22287        12.45346        -2.27814
C          8.66001        14.41917        -1.27260
C          7.35770        13.90866        -1.77985
C          8.57792        15.75389        -0.69126
C          7.40952        16.56823        -0.75418
C          8.69907        18.56864        -0.12941
C          7.44709        17.94125        -0.41451
C          8.72308        19.94021         0.30265
C          7.51607        20.60713         0.54031
C          8.83184        22.64609         1.23767
C          7.55857        21.91591         1.21312
C          8.84836        23.97381         1.70879
C          7.60597        24.72015         1.89482
C          8.88259        26.70785         2.64916
C          7.68256        26.13191         2.26362
C          8.95556        28.10913         3.00273
C          7.75492        28.89497         2.96656
C         10.66790         5.74821         2.97661
C          9.60913         5.71145         2.05822
C         11.17475         6.85593         0.38418
C          9.76882         6.19011         0.65103
C         11.41330         7.59433        -0.85787
C          9.44295         8.19656        -1.71306
C         10.73442        10.18726        -2.58248
C          9.52397         9.53497        -2.12053
C         10.97699        11.54040        -2.45492
C          9.73781        12.45911        -2.49159
C         11.18612        14.26747        -1.47038
C          9.85312        13.73133        -1.61670
C         11.48958        15.35366        -0.63601
C          9.70532        16.38605        -0.11033
C         11.20543        18.38861         0.20451
C          9.87088        17.77589        -0.02803
C         11.21645        19.87034         0.31370
C         10.00618        20.57737         0.52886
C         11.28946        22.62251         1.07572
C         10.03939        21.95528         0.92818
C         11.31640        23.95792         1.61799
C         10.10077        24.59667         1.95847
C         11.45038        26.61537         2.80876
C         10.11449        25.89451         2.65177
C         11.42575        28.07925         3.02048
C         10.17973        28.72952         3.24960
C         12.78601         6.69917         3.84828
C         11.85498         6.50493         2.76627
C         13.04101         8.26722         1.39867
C         12.08655         7.08849         1.51432
C         13.56800         8.33897        -0.01976
C         12.54679         8.39838        -1.07202
C         13.90044        10.01001        -2.58510
C         12.74421         9.16097        -2.23389
C         13.65566        11.51865        -2.78421
C         12.30658        12.23358        -2.65350
C         13.67453        14.40663        -2.01582
C         12.36138        13.69189        -2.19626
C         13.67299        15.79362        -1.53607
C         12.57820        16.27861        -0.81900
C         13.67074        18.57505        -0.54625
C         12.54072        17.66806        -0.22466
C         13.64671        19.93910        -0.25982
C         12.44517        20.58173         0.25529
C         13.70839        22.68502         0.60411
C         12.47754        21.95373         0.64552
C         13.78413        23.99409         1.26461
C         12.56436        24.66490         1.74209
C         13.79479        26.81549         1.99073
C         12.63661        25.99488         2.19217
C         13.80044        28.19614         2.40647
C         12.60310        28.79583         2.91713
C         14.97521         7.50702         4.67187
C         13.94730         7.44785         3.70011
C         15.60801         8.01182         1.96703
C         14.18292         8.28796         2.46005
C         15.99821         8.20080         0.53353
C         14.86056         8.24177        -0.38492
C         16.28886        10.29693        -1.71371
C         15.22565         9.53185        -2.10863
C         16.26011        11.69347        -2.24614
C         14.92574        12.35033        -2.67341
C         16.09685        14.62001        -2.73103
C         14.84385        13.81283        -2.42727
C         15.97893        16.05792        -2.29135
C         14.87561        16.58823        -1.68322
C         15.75574        18.94212        -1.90976
C         14.97964        17.96035        -1.01265
C         15.90156        20.30068        -1.25247
C         14.80880        20.79940        -0.54350
C         15.90440        23.06400        -0.44910
C         14.82920        22.16860        -0.06412
C         15.94168        24.39490        -0.06336
C         14.99831        24.88724         0.94285
C         15.99968        27.16076         0.97789
C         14.91643        26.32605         1.26615
C         16.07829        28.47913         1.53453
C         14.94724        28.97886         2.22983
C         17.34312         7.96087         5.32251
C         16.29364         7.95215         4.34799
C         17.98281         8.37172         2.57311
C         16.64125         8.22760         2.99832
C         18.32804         8.58206         1.18284
C         17.28834         8.83602         0.17297
C         18.68501        10.49010        -1.02524
C         17.41161         9.78870        -0.86044
C         18.70865        11.90231        -1.50399
C         17.46922        12.54967        -2.01186
C         18.50005        14.77461        -1.95432
C         17.37128        14.02583        -2.11093
C         18.52802        16.17597        -2.44917
C         17.19609        16.87538        -2.52230
C         18.35992        19.10907        -2.01379
C         17.10879        18.34151        -2.29966
C         18.24318        20.58346        -2.05970
C         17.03393        21.12004        -1.58907
C         18.19438        23.42685        -1.64542
C         16.91979        22.56835        -1.40286
C         18.25944        24.76143        -1.04270
C         16.98833        25.33004        -0.55409
C         18.35742        27.41367         0.10837
C         17.06014        26.72086         0.05601
C         18.41741        28.68788         0.74897
C         17.26221        29.23172         1.38050
C         18.65127         8.12535         4.93723
C         20.37558         8.32099         3.17166
C         19.01531         8.29158         3.56384
C         20.71247         8.39973         1.83052
C         19.69120         8.51979         0.86466
C         21.15150        10.71621        -0.79774
C         19.92664         9.94031        -0.80364
C         21.12503        12.06937        -0.83306
C         19.82990        12.76881        -0.99994
C         20.95683        15.07391        -1.29526
C         19.72886        14.24505        -1.28929
C         20.99040        16.32652        -1.77280
C         19.79395        16.96733        -2.37718
C         20.79804        19.32918        -2.64599
C         19.69680        18.45878        -2.19894
C         20.65590        20.67493        -2.65735
C         19.43385        21.35379        -2.25406
C         20.63837        23.51501        -1.92160
C         19.44244        22.73964        -1.98672
C         20.63948        24.82160        -1.49914
C         19.45099        25.47451        -1.01749
C         20.71403        27.57661        -0.44306
C         19.51205        26.83578        -0.46511
C         20.76650        28.84766         0.13844
C         19.64275        29.40177         0.73808
O         19.15720        18.70861        -0.84173
O         13.75932        10.60589        -3.90525
O          5.86199        14.83725         0.02975
O         16.52519        26.49516        -1.31597
O          7.27251        13.59995        -3.19101
O          6.91196        21.91919         2.55937
O         15.18606         8.17152        -1.75645
O         19.36798        16.38474        -3.64306
O         10.85626        25.86810         3.91873
O         10.55907         7.34443        -1.91395
O         15.88772        11.87940        -3.65551
O          2.87421        14.57580        -3.27297
O         17.09836        23.33181        -2.62671
O         12.08580        17.72987         1.16618
O         10.67079        15.56101         0.47807
O          5.77821         6.34202        -1.48510
O         18.53194        12.04828        -2.94756
O         20.06397         8.57032        -0.49910
O          4.50238        23.90456        -0.48950
O          3.93894         7.19907         1.40476
O         11.70304         9.31110        -3.12125
O          3.93558        12.10868        -3.53419
O          0.70263         6.50810        -1.29927
O          1.62015        22.53284         1.27095
O         10.83752         5.45274         0.03716
O         14.93622        24.07674         2.16622
O         17.09100        17.80679        -3.66220
O         12.20273        13.34009        -3.62057
O         19.45130        13.69421         0.06605
O         15.97549         6.85059         1.16161
O         14.98250        19.15439        -3.10553
H         15.44358        18.67696        -3.83782
O          4.53383        24.65891         3.07155
H          5.22799        24.83987         3.74004
O          9.62168        12.89404        -3.87065
H         10.49665        13.26589        -4.14171
O         14.26626         9.67829         2.91524
H         14.64204         9.67558         3.82260
O          4.65789        27.65925        -0.20723
H          5.50779        28.14548        -0.14463
O         15.79146        17.75849         0.17890
H         15.21221        17.43299         0.89978
O          4.34316        21.56651         2.35665
H          5.08347        21.25546         2.92643
O          8.59370         5.26268        -1.24554
H          9.54147         5.20059        -1.50338
O         16.26621        14.59267        -4.16443
H         16.35895        13.64685        -4.43060
O         12.19063         9.43478         1.58093
H         12.62686         9.99122         2.27198
H          1.38218         3.06175         2.60810
H         -0.78283         3.17326         1.36463
H         -1.01557         4.82151        -0.52644
H         -1.32028         8.09502        -1.05758
H         -1.21729        10.59054        -0.91498
H         -0.91169        12.52099        -0.32560
H         -0.78707        14.96998        -0.59909
H         -0.89985        16.72900        -2.03265
H         -0.75533        19.15890        -1.72413
H         -0.48172        21.10326        -1.83902
H         -0.45417        23.43502        -1.17866
H         -0.55927        25.17553        -0.04115
H         -0.40765        27.56640         0.59465
H          0.89790        29.49402         1.37276
H          3.62856         3.56901         2.83936
H          2.99913        30.46249         2.23689
H          6.09029         3.90418         2.96863
H          5.37325        30.17111         2.87160
H          8.37043         4.52577         3.37097
H          7.80754        29.95192         3.26739
H         10.49608         5.31511         3.97313
H         10.19113        29.80925         3.46307
H         12.61259         6.15561         4.78867
H         12.60127        29.87777         3.11763
H         14.80444         7.05178         5.65854
H         14.95848        30.01322         2.60339
H         17.09431         7.78155         6.37827
H         17.31966        30.23855         1.81909
H         19.45369         8.09064         5.68876
H         21.16000         8.23841         3.93736
H         21.76057         8.36557         1.50650
H         22.10080        10.17639        -0.67825
H         22.05267        12.64852        -0.73014
H         21.85188        14.65244        -0.81651
H         21.91280        16.92161        -1.69854
H         21.71973        18.86266        -3.02212
H         21.49794        21.28767        -3.00785
H         21.59347        23.06077        -2.21781
H         21.59448        25.36222        -1.48836
H         21.62905        27.16851        -0.89124
H         21.71333        29.40535         0.12974
H         19.69438        30.39261         1.21095
