         244
 CSIRO Nanostructure Databank - Neutral Graphene Oxide Data Set
C          1.27114         1.90062        -0.56667
C          1.14651         3.29385        -0.59772
C          2.42512         1.26783        -0.12351
C          2.30620         4.11459        -0.20805
C          1.08674         6.40333        -0.32749
C          1.13328         7.75883        -0.33260
C          2.30054         5.61238        -0.09470
C          2.35873         8.48228        -0.06642
C          1.16279        10.70129        -0.20401
C          1.16144        12.08357        -0.23557
C          2.35814         9.93471         0.05889
C          2.31200        12.85040         0.06255
C          1.18232        15.07349        -0.25541
C          1.24342        16.44886        -0.25226
C          2.34085        14.27485         0.00686
C          2.47433        17.14226        -0.04784
C          2.55490        18.55943        -0.09709
C          3.58946         2.09216         0.37706
C          3.62378         3.39788        -0.43866
C          4.91706         1.39835         0.32617
C          4.88873         4.20386        -0.25365
C          3.59343         6.33176        -0.12610
C          3.55439         7.75232         0.04082
C          4.82189         5.64354        -0.20982
C          4.80875         8.42552         0.42729
C          3.52850        10.63180         0.35676
C          3.48858        12.10775         0.65468
C          4.79235         9.93434         0.62819
C          4.80781        12.80376         0.47081
C          3.57981        14.96106         0.23215
C          3.66149        16.38095         0.17874
C          4.78144        14.21026         0.44976
C          4.92880        17.05698         0.24897
C          3.77043        19.21202         0.01495
C          4.98683        18.48958         0.14775
C          6.10501         2.04511         0.04902
C          6.09720         3.49162        -0.30849
C          7.31038         1.32993         0.42984
C          7.31080         4.24272        -0.55599
C          6.05233         6.42145        -0.24477
C          6.07665         7.75841         0.08533
C          7.28163         5.70714        -0.63197
C          7.32106         8.57918         0.06188
C          6.06467        10.67491         0.57419
C          6.04925        12.07028         0.51058
C          7.33619         9.89491         0.85606
C          7.28156        12.80178         0.74373
C          6.00312        14.92675         0.65996
C          6.12745        16.31846         0.45086
C          7.10401        14.12217         1.08201
C          7.40869        16.99099        -0.05305
C          6.24254        19.17194         0.19232
C          7.45767        18.49177         0.12583
C          8.58521         1.63467        -0.04851
C          8.53795         3.68146        -0.89339
C          9.83563         1.42423         0.54479
C          9.79915         4.30158        -0.63034
C          8.63677         6.45396        -0.59727
C          8.63646         7.91383        -0.24564
C          9.83944         5.65206        -0.36057
C          9.92502         8.52078         0.18218
C          8.63227        10.66243         0.53893
C          8.62679        12.16297         0.58210
C          9.94661         9.92335         0.78586
C          9.94913        12.89375         0.62116
C          8.96310        15.19874         0.86851
C          8.75643        16.36104         0.20377
C         10.05577        14.27979         0.60573
C          9.95270        17.00362        -0.45588
C          8.71281        19.15584         0.02133
C          9.94268        18.50713        -0.18293
C         11.03923         2.14070         0.20065
C         11.03784         3.41659        -0.68804
C         12.23560         1.62707         0.64473
C         12.30019         4.21904        -0.45314
C         11.05896         6.28658         0.24743
C         11.07505         7.80583         0.13482
C         12.32555         5.55668        -0.15899
C         12.39166         8.49742         0.42761
C         11.18379        10.71403         0.39483
C         11.17438        12.12780         0.39097
C         12.38570         9.99799         0.16775
C         12.43123        12.81282         0.24261
C         11.27805        14.98479         0.32895
C         11.21824        16.34377         0.04144
C         12.50398        14.23803         0.28871
C         12.41755        17.13797         0.18405
C         11.16969        19.21218        -0.26010
C         12.42361        18.56308        -0.19356
C         13.54606         2.36015         0.60165
C         13.57150         3.41606        -0.52248
C         14.80033         1.50916         0.50135
C         14.82870         4.22371        -0.35143
C         13.57461         6.29883        -0.18492
C         13.51358         7.77180        -0.29107
C         14.79221         5.65334        -0.39425
C         14.77181         8.50572        -0.68013
C         13.58693        10.68078        -0.09951
C         13.64213        12.09758        -0.00477
C         14.82339        10.02923        -0.68340
C         14.90547        12.78908        -0.13695
C         13.72265        14.91060         0.12552
C         13.74493        16.36410         0.25919
C         14.93805        14.19930        -0.08903
C         14.96283        17.08968        -0.08349
C         13.67776        19.19699        -0.32929
C         14.90746        18.49841        -0.28128
C         15.98339         2.09589         0.11952
C         16.01058         3.52720        -0.19937
C         17.25134         1.40289         0.16013
C         17.26650         4.22507        -0.30428
C         16.04117         6.38408        -0.52901
C         16.03751         7.75739        -0.68134
C         17.28195         5.62546        -0.50028
C         17.29786         8.55186        -0.92318
C         16.11312        10.66971        -0.21687
C         16.16199        12.04758        -0.16252
C         17.35204         9.82890        -0.03599
C         17.44038        12.77395        -0.10931
C         16.17739        14.93665        -0.15134
C         16.16346        16.34631        -0.15838
C         17.43411        14.20525        -0.15417
C         17.44556        17.12038        -0.00319
C         16.15943        19.18269        -0.57608
C         17.35396        18.54322        -0.51439
C         18.44532         2.05832        -0.04063
C         18.48197         3.49169        -0.28789
C         19.71685         1.35511         0.06445
C         19.70802         4.16530        -0.48320
C         18.52739         6.29862        -0.60393
C         18.55535         7.72870        -0.73797
C         19.74031         5.56636        -0.58687
C         19.75013         8.41829        -0.71326
C         18.61938        10.62072        -0.34287
C         18.67624        12.07211        -0.17678
C         19.66772         9.86464        -0.81645
C         19.91552        12.80746         0.00477
C         18.64999        14.91724        -0.19023
C         18.64470        16.37707        -0.58643
C         19.87824        14.24440         0.03994
C         19.89117        17.14012        -0.21593
C         18.64173        19.21959        -0.93196
C         19.86096        18.54165        -0.34480
C         20.89660         1.96515        -0.15756
C         21.00710         3.39461        -0.61420
C         22.09520         4.15946         0.11149
C         21.08978         6.26622        -0.73713
C         21.02464         7.76355        -0.43189
C         22.13383         5.49511         0.04810
C         22.08536         8.42899         0.14003
C         21.44070        10.80447        -0.09578
C         21.19744        12.19621         0.25886
C         22.12978         9.81688         0.54735
C         22.27942        12.95424         0.70649
C         21.05674        15.01557         0.35179
C         21.03638        16.48179         0.27530
C         22.21130        14.34954         0.76029
C         22.15099        17.26678         0.64226
C         20.98344        19.29463         0.02049
C         22.12039        18.65316         0.51842
O          8.59012        11.37760        -0.70561
O         13.74687         8.12978        -1.69842
O         20.81772        10.47983        -1.31900
O          8.58560         2.33652        -1.27960
O          7.94461         6.19304        -1.84767
O          4.75182         8.99344         1.80057
O          8.06265        14.77693         1.84237
O          2.18630         4.72207         1.13537
O          7.93086         8.71740        -1.25339
O         13.09636        16.88501         1.46912
O         17.69011        17.20569         1.43406
H         16.90094        17.61397         1.84896
O         10.08366         9.70782         2.22851
H          9.18754         9.47917         2.58329
O         18.72444        19.16748        -2.37118
H         18.64051        18.21431        -2.61947
O         10.95157         6.07722         1.69880
H         11.70607         6.56923         2.10509
O         13.70968         2.73068        -1.78667
H         12.80989         2.62122        -2.18063
O         14.80251        10.39549        -2.11783
H         14.10857         9.82555        -2.52953
O          3.24739        12.16553         2.13231
H          2.42229        11.66281         2.30616
O         17.27422         8.98821        -2.30727
H         16.44296         9.51049        -2.45162
O         12.63713         8.33865         1.86091
H         11.91036         8.83324         2.31646
O         21.36911         3.35500        -2.02432
H         21.50077         4.29474        -2.30999
O          3.36094         2.34855         1.79083
H          2.83295         3.17739         1.88458
O          7.36186         9.55733         2.27139
H          6.44010         9.26581         2.50502
O         17.37501         9.38108         1.35086
H         17.40495        10.17499         1.92460
O         18.49300        16.40205        -2.04373
H         19.18078        15.81730        -2.42675
O          9.92935        16.83799        -1.90082
H          8.97793        16.86774        -2.16853
O         11.08020         2.93131        -2.06556
H         10.24359         2.42503        -2.20689
O          7.24011        16.81164        -1.52841
H          6.44538        17.32465        -1.79329
O         21.46768         6.14939        -2.15346
H         20.80875         6.65609        -2.67503
O         13.63564         3.09385         1.86710
H         13.64318         2.43738         2.59458
O          3.61500         3.03077        -1.84765
H          4.44855         2.55190        -2.04178
H          0.40426         1.28861        -0.85923
H          0.17939         3.76067        -0.83010
H          2.45096         0.17303        -0.02265
H          0.12829         5.87938        -0.44755
H          0.19998         8.31447        -0.49049
H          0.22900        10.18223        -0.45292
H          0.23298        12.59291        -0.53212
H          0.21344        14.58488        -0.42917
H          0.33047        17.03618        -0.43008
H          1.63280        19.14066        -0.24311
H          4.96044         0.37904         0.74110
H          3.80874        20.31007        -0.03376
H          7.20608         0.56730         1.21646
H          6.23892        20.27258         0.22846
H          9.88840         0.74574         1.41034
H          8.71318        20.25534         0.11014
H         12.21628         0.66660         1.18890
H         11.14734        20.31325        -0.30770
H         14.79221         0.47853         0.89097
H         13.70352        20.27494        -0.55163
H         17.25527         0.32508         0.38469
H         16.11300        20.23605        -0.89382
H         19.68848         0.29151         0.34839
H         18.62756        20.30175        -0.64441
H         21.83407         1.39385        -0.07548
H         22.87586         3.60276         0.65316
H         22.95443         6.03024         0.54625
H         22.96278         7.84202         0.45015
H         22.73886        10.06672         1.42878
H         23.22779        12.44705         0.93381
H         23.10619        14.90538         1.06660
H         23.06175        16.79624         1.03538
H         20.96427        20.38934        -0.08014
H         22.99906        19.24462         0.81123
