         404
 CSIRO Nanostructure Databank - Neutral Graphene Oxide Data Set
C          1.10506         3.54102         0.85251
C         -0.09254         4.23933         0.81137
C          1.07967         6.34219         0.37503
C         -0.11418         5.62073         0.57176
C          1.08508         7.77027         0.08376
C         -0.10280         8.52284        -0.06455
C          1.13441        10.56444        -0.61895
C         -0.08284         9.87023        -0.39528
C          1.16000        11.99547        -0.98001
C         -0.02959        12.74433        -1.11646
C          1.21660        14.81235        -1.55247
C          0.00255        14.10455        -1.38012
C          1.23958        16.27913        -1.58459
C          0.02155        16.99822        -1.40539
C          1.20423        19.08727        -1.01893
C         -0.00188        18.35178        -1.16619
C          1.18452        20.48377        -0.65430
C         -0.02560        21.27922        -0.74709
C          1.08138        23.30512         0.13006
C         -0.05744        22.61574        -0.49928
C          1.14771        24.79703         0.23341
C         -0.03880        25.54173         0.29152
C          1.18025        27.63201         0.62838
C         -0.02879        26.92238         0.47618
C          1.19500        29.09869         0.77666
C         -0.02011        29.83612         0.84049
C          1.16954        31.96805         0.92144
C         -0.03153        31.21366         0.92600
C          1.17560        33.40818         1.03018
C         -0.05031        34.17288         0.90699
C          1.10215        36.32363         1.25351
C         -0.08289        35.53221         0.91122
C          1.19020        37.75632         0.92998
C          3.57067         3.51970         0.70722
C          2.33954         4.22090         0.66250
C          3.56107         6.32571         0.26286
C          2.31756         5.63578         0.43420
C          3.56757         7.74220         0.04377
C          2.32570         8.45182        -0.09052
C          3.61863        10.47316        -0.74913
C          2.32630         9.83304        -0.44941
C          3.64137        11.92116        -1.14370
C          2.37902        12.68413        -1.19575
C          3.70669        14.71792        -1.88190
C          2.42124        14.06640        -1.50973
C          3.71812        16.30808        -1.97173
C          2.45052        17.00268        -1.60487
C          3.65246        19.14715        -1.10521
C          2.44015        18.39917        -1.24213
C          3.61942        20.46511        -0.63994
C          2.39531        21.13760        -0.36165
C          3.65223        23.29874         0.35151
C          2.37431        22.51890         0.18945
C          3.66163        24.77888         0.30581
C          2.38723        25.48365         0.36133
C          3.67638        27.57216         0.76232
C          2.38459        26.88959         0.56381
C          3.68626        29.08666         0.86028
C          2.40117        29.82026         0.80672
C          3.63697        31.98020         0.82145
C          2.40734        31.25470         0.84679
C          3.64464        33.39624         0.91959
C          2.40270        34.08815         1.10161
C          3.67324        36.29143         1.07975
C          2.43701        35.54061         1.32668
C          3.65258        37.70485         1.01215
C          2.38229        38.40368         0.91833
C          6.05629         3.48269         0.63116
C          4.80309         4.17954         0.51273
C          6.02862         6.29030         0.01522
C          4.77111         5.58638         0.27173
C          6.02124         7.74924         0.14721
C          4.82082         8.45430         0.04865
C          6.03538        10.60791        -0.20876
C          4.85521         9.87700        -0.21204
C          6.09722        11.98573        -0.65643
C          4.90944        12.65879        -1.01815
C          6.23578        14.45539        -1.83159
C          4.95150        13.96506        -1.56174
C          6.24173        16.57194        -2.02718
C          4.97443        17.07251        -1.78562
C          6.20209        19.13740        -1.11071
C          4.92527        18.57305        -1.68867
C          6.18109        20.57887        -0.84465
C          4.87432        21.25667        -0.61179
C          6.16222        23.37662        -0.19180
C          4.93563        22.59108         0.05045
C          6.13043        24.77140        -0.09019
C          4.87276        25.46751         0.16267
C          6.06079        27.65229         0.06192
C          4.91088        26.91110         0.29844
C          6.08864        29.10421         0.14593
C          4.92042        29.78721         0.49117
C          6.15037        32.00886         0.37690
C          4.90923        31.24432         0.70554
C          6.02754        33.47861         0.21088
C          4.85150        34.16300         0.74345
C          6.13642        36.31197         0.85760
C          4.88850        35.58624         0.85795
C          6.12465        37.76090         0.88287
C          4.86587        38.40579         0.86836
C          8.54266         3.46775         0.74970
C          7.30334         4.11646         0.54069
C          8.58276         6.31422         0.38555
C          7.34161         5.54362         0.14926
C          8.55729         7.72259         0.35120
C          7.27285         8.44638         0.40288
C          8.56395        10.64119         0.05517
C          7.27121         9.97653         0.27669
C          8.57486        12.01290        -0.32184
C          7.35318        12.68107        -0.66853
C          8.63402        14.80618        -1.16184
C          7.41874        13.99735        -1.20582
C          8.62804        16.28211        -1.21860
C          7.45902        17.06631        -1.42795
C          8.54336        19.06262        -0.26326
C          7.37833        18.44354        -0.99600
C          8.61437        20.56460        -0.39140
C          7.42441        21.26717        -0.47097
C          8.61691        23.39992        -0.37150
C          7.39235        22.68767        -0.36839
C          8.56597        24.82096        -0.45116
C          7.34364        25.49375        -0.33016
C          8.55288        27.74846        -0.59733
C          7.26916        26.96504        -0.44915
C          8.55521        29.17429        -0.22064
C          7.33435        29.82784        -0.07556
C          8.60796        32.02680        -0.03395
C          7.29827        31.32001        -0.33082
C          8.62187        33.43824         0.18709
C          7.36236        34.22281         0.16145
C          8.58243        36.06135         1.18187
C          7.35235        35.56877         0.73734
C          8.58459        38.17553         1.08609
C          7.30070        38.57878         0.69568
C         11.02124         3.49758         0.81371
C          9.78676         4.16141         0.70381
C         11.01212         6.33528         0.66139
C          9.79262         5.60957         0.57541
C         10.97439         7.74109         0.52459
C          9.76593         8.45803         0.37954
C         10.98412        10.60963         0.00056
C          9.76200         9.91362         0.19406
C         11.02217        11.99596        -0.23804
C          9.80024        12.72439        -0.43788
C         11.11385        14.80151        -0.81501
C          9.80581        14.11613        -0.79143
C         11.14472        16.30922        -0.87589
C          9.84672        17.01576        -0.87340
C         11.04449        19.12002        -0.26069
C          9.84634        18.37626        -0.55514
C         11.08341        20.52645        -0.17019
C          9.84938        21.27063        -0.28735
C         11.10667        23.40329        -0.30739
C          9.85392        22.68178        -0.33704
C         11.11122        24.80764        -0.40832
C          9.84817        25.52091        -0.68202
C         11.11506        27.72340        -0.35802
C          9.86247        27.02941        -0.71721
C         11.07074        29.12959        -0.07448
C          9.81354        29.86167        -0.08101
C         11.02970        31.98103         0.46947
C          9.79324        31.27169         0.07824
C         11.12071        33.44763         0.11260
C          9.82245        34.14536         0.38533
C         11.03601        36.29065         0.84054
C          9.83703        35.51124         0.79175
C         11.04371        37.73908         0.83011
C          9.87795        38.56904         0.68688
C         13.50223         3.51156         0.85685
C         12.26794         4.19473         0.82302
C         13.50352         6.32222         0.85752
C         12.27577         5.63474         0.79591
C         13.52662         7.79609         0.84499
C         12.22962         8.50245         0.62799
C         13.55394        10.52752        -0.20014
C         12.23701         9.83741        -0.02319
C         13.50264        12.00277        -0.19156
C         12.29706        12.67334        -0.24387
C         13.57387        14.86392        -0.27884
C         12.25902        14.16301        -0.05532
C         13.57087        16.28485        -0.20173
C         12.34455        16.97054        -0.32194
C         13.62235        19.15035         0.18822
C         12.25925        18.36225         0.04208
C         13.58099        20.58463        -0.07402
C         12.33555        21.25633        -0.11283
C         13.56856        23.40828        -0.30165
C         12.33553        22.68558        -0.22298
C         13.55067        24.82858        -0.37617
C         12.33237        25.53752        -0.40790
C         13.56673        27.70190        -0.20190
C         12.31966        27.00072        -0.35398
C         13.53776        29.11393         0.00518
C         12.29604        29.79126         0.15986
C         13.58278        31.96417         0.46698
C         12.31832        31.21085         0.54354
C         13.58320        33.40786         0.93136
C         12.30761        34.16853         0.67714
C         13.54361        36.28592         0.79776
C         12.29380        35.56611         0.77115
C         13.53738        37.71527         0.79629
C         12.30366        38.39478         0.77399
C         15.98520         3.50676         0.89062
C         14.73892         4.19970         0.88858
C         15.98642         6.35087         1.03695
C         14.74385         5.63527         0.91184
C         16.03883         7.80698         0.91590
C         14.80670         8.51063         0.58778
C         16.03819        10.63791         0.25678
C         14.80315         9.82958         0.20873
C         15.95364        12.01684        -0.29907
C         14.74878        12.71908        -0.22080
C         16.03881        14.84826        -0.31044
C         14.77601        14.15215        -0.31496
C         16.04313        16.24087        -0.14656
C         14.83332        16.98459        -0.05922
C         16.06636        19.14003        -0.14686
C         14.86209        18.40574        -0.00857
C         16.06253        20.54528        -0.25572
C         14.81565        21.28118        -0.24867
C         16.07015        23.41478        -0.29657
C         14.81355        22.69224        -0.33066
C         16.06754        24.79779        -0.23815
C         14.83863        25.56621        -0.64867
C         16.01276        27.74433        -0.10939
C         14.81491        27.02070        -0.23184
C         15.98667        29.15675        -0.03105
C         14.76479        29.84585         0.03951
C         16.03452        32.02146         0.14980
C         14.74675        31.29010         0.22523
C         16.04732        33.50476         0.22704
C         14.78585        34.20612         0.50102
C         16.09984        36.28962         0.76680
C         14.77484        35.57813         0.61242
C         16.01070        37.78947         0.60971
C         14.77806        38.43119         0.71364
C         18.47328         3.51337         1.00318
C         17.19190         4.19624         1.00735
C         18.43537         6.30635         1.49066
C         17.18084         5.62215         1.14166
C         18.46733         7.84252         1.46067
C         17.24111         8.49996         0.97665
C         18.68462        10.54877         0.56641
C         17.31944         9.95005         0.68036
C         18.95214        11.68153        -0.16319
C         17.10717        12.74021        -0.67072
C         18.58699        14.74646        -0.40938
C         17.27250        14.11660        -0.46821
C         18.60166        16.17322        -0.32845
C         17.34887        16.90566        -0.01492
C         18.59218        19.11991        -0.39278
C         17.35192        18.42563        -0.02140
C         18.55507        20.53650        -0.51533
C         17.31075        21.25368        -0.37229
C         18.55900        23.36065        -0.43067
C         17.32057        22.66447        -0.33068
C         18.60728        24.79804        -0.11133
C         17.31174        25.52999         0.07446
C         18.58858        27.74389        -0.24102
C         17.31678        27.03624         0.07181
C         18.57729        29.22105        -0.21043
C         17.26399        29.92234        -0.03357
C         18.45586        32.12433        -0.58380
C         17.15529        31.33337        -0.63266
C         18.40999        33.50049        -0.65175
C         17.10111        34.26459        -0.55775
C         18.38201        36.40309        -0.21210
C         17.24429        35.67847        -0.02322
C         18.44144        37.81052         0.20203
C         17.23394        38.48590         0.50637
C         19.66028         4.17812         1.11620
C         20.89434         6.32809         1.37674
C         19.71903         5.60547         1.33091
C         20.91952         7.76251         1.45735
C         19.78230         8.52420         1.41665
C         21.01486        10.82220         1.40884
C         19.71985        10.05541         1.54895
C         21.09577        12.05861         0.83455
C         19.99247        12.62788         0.09288
C         21.03148        14.82014        -0.27753
C         19.84587        14.02769        -0.25783
C         21.02029        16.19069        -0.42760
C         19.80224        16.92259        -0.40999
C         20.97533        19.12098        -0.80321
C         19.79060        18.38459        -0.51631
C         20.96145        20.49575        -0.92176
C         19.76563        21.24872        -0.76349
C         20.89557        23.46955        -1.17973
C         19.75382        22.68831        -0.75462
C         20.91146        24.83027        -1.16443
C         19.86103        25.59446        -0.47611
C         20.90860        27.85027        -0.96835
C         19.75252        27.08051        -0.58196
C         20.89754        29.22092        -1.04552
C         19.73998        29.99091        -0.71196
C         20.88733        32.17854        -1.04570
C         19.69984        31.39786        -0.77623
C         20.85534        33.52924        -1.18709
C         19.59500        34.27196        -1.06754
C         20.82640        36.56736        -0.79915
C         19.57608        35.81078        -0.87776
C         20.85598        37.82711        -0.25356
C         19.67540        38.47531         0.18830
O          4.47052        22.68821         1.42746
O          1.71430        35.96761         2.52873
O         18.28703         7.09864         2.71294
O         16.78851        31.17624        -1.96309
O          6.77189         5.79985        -1.18128
O         19.30824        35.19944        -2.19109
O          7.16726         9.33522         1.58468
O          5.49051        21.34190        -1.94741
O          6.37485        15.42518        -2.81372
O         17.28198        26.27901         1.34189
O          8.58736        37.13314         2.05773
O         16.49343        32.67689         1.37009
O          3.64072        15.43757        -3.13795
O          9.94254        26.26231        -1.95826
O         12.89020         9.87140        -1.34506
O          6.53691        34.04224        -1.02964
O          3.73666        10.86422        -2.17431
O         18.12235        11.98537        -1.25106
O         12.84168        18.70989         1.33521
O         16.52115        10.73194         1.67906
O         11.53502        31.56532         1.75837
O         19.61225        25.11683         0.89017
O         17.46424        17.67248         1.23986
O          7.68833        27.49718        -1.75799
O          1.51764        22.64412         1.37131
O         12.80976         8.44809         1.97656
O          3.81277        28.23722         2.06489
O         18.09527        29.76758         1.12360
O          5.93032        31.62532         1.75101
O         11.43684        15.46360        -2.06042
O         11.90701        14.38061         1.35550
H         12.63453        14.02679         1.90999
O          4.89540        18.99677        -3.10145
H          5.04255        19.97614        -3.09754
O         19.25681        10.31522         2.90711
H         18.28483        10.17466         2.93495
O          8.26837        18.79614         1.15974
H          9.05280        19.08619         1.67320
O          7.01139        31.45359        -1.75729
H          7.74250        31.03036        -2.25493
O         14.93616        25.61608        -2.13123
H         14.12088        26.05185        -2.46271
O         16.44348        36.06794         2.18102
H         17.25434        36.58623         2.37134
O         16.56520        34.40034        -1.90446
H         17.31961        34.66321        -2.48222
O         11.33238        33.44589        -1.35110
H         11.29142        34.37467        -1.66380
O         13.75824        33.34195         2.39399
H         14.68601        33.04846         2.55399
H          1.11014         2.45662         1.03296
H         -1.04154         3.70570         0.96134
H         -1.08455         6.13385         0.53711
H         -1.07828         8.03623         0.07118
H         -1.04317        10.39226        -0.50189
H         -1.00789        12.26049        -0.99649
H         -0.95851        14.62926        -1.45096
H         -0.93810        16.46833        -1.44800
H         -0.97108        18.84803        -1.02527
H         -0.92608        20.80854        -1.16595
H         -0.96198        23.18970        -0.74695
H         -1.00649        25.02823         0.20732
H         -0.99289        27.44542         0.51365
H         -0.98305        29.30916         0.84681
H         -1.00009        31.72420         1.00839
H         -0.97954        33.63242         0.67975
H         -1.00967        36.06234         0.64535
H          0.25931        38.29970         0.70887
H          3.56092         2.43717         0.90269
H          2.41374        39.48584         0.72179
H          6.02398         2.40927         0.87174
H          4.83539        39.50266         0.78613
H          8.54980         2.38487         0.94616
H          7.16700        39.55319         0.20186
H         11.03337         2.39944         0.88606
H         10.01946        39.56320         0.23600
H         13.50561         2.41112         0.86061
H         12.31484        39.49424         0.72097
H         15.98887         2.40895         0.81763
H         14.74224        39.53128         0.67597
H         18.47098         2.42141         0.87037
H         17.24899        39.58118         0.61622
H         20.60773         3.62126         1.06334
H         21.85474         5.79734         1.29997
H         21.90299         8.25434         1.48932
H         21.88096        10.44639         1.97369
H         22.03017        12.63061         0.93960
H         22.00346        14.31123        -0.21566
H         21.98135        16.71805        -0.48797
H         21.93224        18.59647        -0.92609
H         21.90888        21.01726        -1.11476
H         21.74003        22.94170        -1.64542
H         21.73848        25.36462        -1.65323
H         21.83591        27.31763        -1.21938
H         21.81234        29.73075        -1.37755
H         21.85264        31.66427        -1.15375
H         21.77495        34.07481        -1.44092
H         21.73800        36.13727        -1.23586
H         21.80575        38.37972        -0.22163
H         19.72532        39.52587         0.50762
