         345
 CSIRO Nanostructure Databank - Neutral Graphene Oxide Data Set
C          1.26432         3.46475        -1.42748
C          0.11747         3.72123        -0.70947
C          1.22028         5.59075         0.38038
C          0.11275         4.76347         0.24266
C          1.23052         7.82671         1.19240
C          0.04771         8.52912         1.62594
C          1.08160        10.65757         1.09375
C         -0.05111         9.88543         1.50840
C          1.09048        12.04308         1.15712
C         -0.10444        12.82988         1.24519
C          1.18228        14.92260         1.05049
C         -0.06713        14.19158         1.15205
C          1.17487        16.38977         1.02995
C          0.02161        17.13949         1.22487
C          1.17417        19.30642         1.15447
C          0.01387        18.56327         1.21876
C          1.20024        20.76315         0.96449
C         -0.01459        21.47478         0.81090
C          1.16337        23.52027         0.22614
C         -0.02539        22.81845         0.43883
C          1.18398        24.88471        -0.44558
C         -0.09166        25.69420        -0.44018
C          1.07820        27.87046        -0.18611
C         -0.12432        27.03696        -0.44833
C          1.18524        29.26474        -0.65018
C          3.64105         3.86495        -1.84752
C          2.43342         4.26616        -1.25035
C          3.55082         6.29512        -0.35028
C          2.39942         5.43379        -0.40756
C          3.48573         7.74371         0.02666
C          2.30878         8.44458         0.62162
C          3.58264        10.66139         0.69022
C          2.25314         9.95837         0.42693
C          3.61027        12.01534         0.81324
C          2.40321        12.76488         1.33347
C          3.69470        14.96744         1.16266
C          2.37801        14.23844         1.02649
C          3.64096        16.40729         0.73905
C          2.42435        17.08145         0.85080
C          3.73218        19.26949         0.98083
C          2.43472        18.54025         1.10439
C          3.75279        20.79597         1.12536
C          2.41565        21.47257         0.82452
C          3.63857        23.59162         0.28185
C          2.41309        22.86044         0.46190
C          3.63296        24.98952         0.01190
C          2.41034        25.67398        -0.07778
C          3.65161        27.86875        -0.17182
C          2.39549        27.13149        -0.00320
C          3.64413        29.27719        -0.37633
C          2.37312        29.92658        -0.64859
C          6.07555         3.99457        -1.98483
C          4.83861         4.54401        -1.56118
C          6.03019         6.48134        -0.60500
C          4.77585         5.80352        -0.85496
C          6.05483         7.74701         0.03011
C          4.80266         8.50685         0.13618
C          6.16687        10.52070         0.95887
C          4.81134         9.80851         0.93364
C          6.20769        12.01111         0.72376
C          4.87439        12.76305         0.59130
C          6.06141        14.93533         0.32714
C          4.90335        14.23591         0.64503
C          6.06608        16.38838         0.19363
C          4.86829        17.08005         0.42121
C          6.06096        19.27035        -0.20913
C          4.81493        18.54475         0.23626
C          6.16350        20.72613         0.10171
C          4.83978        21.46166         0.25329
C          6.15123        23.53051        -0.04020
C          4.95345        22.94840         0.67069
C          6.12209        25.01213        -0.32939
C          4.87213        25.73791        -0.08284
C          6.12674        27.89320        -0.07871
C          4.86267        27.13892        -0.13806
C          6.11989        29.34405        -0.34677
C          4.85768        29.98765        -0.46966
C          8.54677         3.99920        -1.99244
C          7.30712         4.60041        -1.66227
C          8.47933         6.50056        -0.62046
C          7.25885         5.85015        -0.93592
C          8.48434         7.72570         0.10435
C          7.26710         8.33847         0.45954
C          8.59740        10.24976         1.30956
C          7.28224         9.69839         1.02067
C          8.63265        12.47791         1.25826
C          7.38578        12.91440         0.80132
C          8.56035        14.92963         0.04350
C          7.33696        14.24405         0.30375
C          8.55366        16.34143        -0.33238
C          7.28204        17.08446        -0.21211
C          8.47432        19.19585        -0.89504
C          7.27576        18.45887        -0.42260
C          8.51964        20.68531        -0.62495
C          7.34779        21.38106        -0.03068
C          8.63285        23.54753        -0.47103
C          7.49007        22.87910         0.27234
C          8.58588        24.91646        -0.74239
C          7.40108        25.67606        -0.52646
C          8.61275        27.89146        -0.75516
C          7.46933        27.11900        -0.33249
C          8.59792        29.31063        -0.57435
C          7.34549        30.00634        -0.41157
C         11.02494         3.91869        -1.81237
C          9.79743         4.60919        -1.66982
C         10.79975         6.85169        -1.18991
C          9.70203         5.95596        -1.13100
C         10.93426         7.97089        -0.40447
C          9.80707         8.32739         0.50894
C         10.92910        10.70752         0.29900
C          9.76406         9.81448         0.76580
C         11.10396        12.12279         0.97194
C          9.85125        12.98368         0.79910
C         11.02355        14.78319        -0.44606
C          9.79022        14.21515         0.12008
C         11.00208        16.24800        -0.84697
C          9.72747        16.99123        -0.67821
C         11.04523        19.12553        -1.48022
C          9.66402        18.34413        -1.36710
C         11.04932        20.53027        -0.86784
C          9.86227        21.33588        -0.48948
C         11.08523        23.55499        -1.11617
C          9.97268        22.87353        -0.32233
C         11.07408        24.90060        -1.34252
C          9.78112        25.64384        -1.26492
C         11.04900        27.93460        -1.47742
C          9.75778        27.16592        -1.33600
C         11.05277        29.37946        -1.03255
C          9.79822        30.02840        -0.64561
C         13.52642         3.50763        -0.97490
C         12.23844         4.29733        -0.99120
C         13.49449         6.32771        -0.32112
C         12.64856         5.74557        -1.20330
C         13.37826         7.70902         0.30144
C         12.21287         8.60949        -0.10125
C         13.52717        10.57892         0.70292
C         12.21935         9.90912         0.32198
C         13.49379        12.03790         0.30438
C         12.34711        12.77350         0.37884
C         13.48934        14.84322        -0.36991
C         12.31999        14.15097        -0.12763
C         13.51926        16.26980        -0.66834
C         12.29264        16.98011        -0.83091
C         13.52766        19.07234        -0.89286
C         12.29800        18.37797        -0.97866
C         13.53703        20.55519        -0.89042
C         12.28417        21.27692        -1.27442
C         13.62756        23.48213        -1.55077
C         12.29868        22.76258        -1.43885
C         13.63672        24.95493        -1.36600
C         12.34435        25.64682        -1.63059
C         13.58469        27.82330        -1.02807
C         12.35610        27.16766        -1.53363
C         13.52211        29.22188        -0.64185
C         12.32871        29.95555        -0.63550
C         15.88554         3.39657        -0.20921
C         14.63732         4.06497        -0.34010
C         15.84941         6.19877         0.55251
C         14.56711         5.45592         0.20206
C         15.87202         7.68614         0.44411
C         14.71290         8.39520         0.29942
C         16.00070        10.55609         0.16299
C         14.68337         9.85730        -0.02497
C         16.02298        11.92772         0.02675
C         14.73252        12.64857        -0.31582
C         16.06243        14.82704        -0.22336
C         14.76185        14.13739        -0.06308
C         16.03589        16.14623        -0.97165
C         14.76131        16.96295        -0.74014
C         16.02927        19.13930        -0.78599
C         14.77261        18.38037        -0.81148
C         16.07869        20.52271        -0.79352
C         14.82387        21.29863        -0.85759
C         16.17617        23.44974        -1.12025
C         14.89833        22.70614        -1.36929
C         16.10779        24.95071        -0.96992
C         14.79306        25.65208        -1.08513
C         15.97854        27.75663        -0.41161
C         14.77962        27.09723        -0.85960
C         15.93525        29.18071        -0.12415
C         14.70030        29.86594        -0.20861
C         18.33013         3.35606         0.17126
C         17.08268         4.06415         0.15816
C         18.33514         6.17259         0.51380
C         17.11317         5.46803         0.40946
C         18.36631         7.61689         0.57563
C         17.15918         8.37335         0.45625
C         18.45734        10.47574         0.42896
C         17.20391         9.78323         0.35376
C         18.50643        11.89442         0.24323
C         17.28110        12.64419        -0.00982
C         18.57120        14.74652        -0.36710
C         17.30363        14.01065        -0.27329
C         18.53958        16.22256        -0.26209
C         17.34149        16.91596        -0.79273
C         18.51118        19.09438        -0.20828
C         17.32240        18.40918        -0.75124
C         18.53742        20.55350        -0.32693
C         17.29663        21.28288        -0.59493
C         18.40970        23.42025         0.01491
C         17.31804        22.68180        -0.56690
C         18.33957        24.87351         0.12002
C         17.23827        25.60786        -0.26984
C         18.32497        27.73614         0.36625
C         17.18696        27.05228        -0.12042
C         18.41368        29.23756         0.25745
C         17.07313        29.88196         0.26235
C         19.51695         4.01576         0.37578
C         20.78185         6.13552         0.67961
C         19.55647         5.43582         0.52391
C         20.80654         7.51161         0.77218
C         19.61377         8.28854         0.69133
C         20.86118        10.45320         0.84966
C         19.65332         9.73571         0.66982
C         20.89665        11.83125         0.73187
C         19.74215        12.56468         0.38167
C         20.89195        14.84834         0.66260
C         19.84589        14.00810         0.06483
C         20.79926        16.20077         0.68041
C         19.63838        16.92898         0.19692
C         20.63296        19.12889         0.99169
C         19.60784        18.39608         0.27031
C         20.61583        20.47881         1.15327
C         19.68998        21.32578         0.39640
C         20.22720        23.44174         1.68353
C         19.44477        22.74033         0.68757
C         20.25420        24.79259         1.70949
C         19.61759        25.55495         0.56986
C         20.49835        27.72309         1.46757
C         19.47461        27.03564         0.83239
C         20.39514        29.12590         1.74571
C         19.37318        29.85815         1.23500
O         15.42845        14.72363         1.10565
O          9.45765        26.34567        -2.51946
O          4.95525        18.95989        -1.16564
O         16.54986        24.32044        -2.22761
O          1.19066         6.45760         1.47524
O          4.05065         8.54111        -1.10532
O         14.38225        22.95945        -2.69872
O         14.95542         5.63211         1.60222
O         17.63625        17.69109        -2.01564
O         12.13390        21.85081        -2.59303
O         19.70230        21.05615        -1.03810
O          5.93397        23.92296        -1.37703
O         11.00099        28.95812        -2.49675
O          8.62478        11.39265         2.12925
O          6.96981        27.50637         1.01372
O          5.57050        12.24063        -0.59129
O         19.55277        14.27273        -1.34618
O          8.17991        20.18361        -1.96084
O         14.03774        21.14855         0.38532
O         10.67600        20.62175         0.53346
O          3.39114        18.69423         2.27751
O          1.59436        27.64521         1.16161
O         11.85565         6.52224        -2.05512
O         10.91361        15.18280        -1.85237
O         12.44539        26.47759        -2.82542
O         15.97011        15.74732        -2.36434
H         16.39934        16.46259        -2.88956
O         10.14560         7.73105         1.81471
H         11.13411         7.67930         1.88699
O         20.55246        25.45788        -0.55789
H         20.54818        24.52591        -0.86601
O         10.39877        23.08976         1.07517
H         10.88362        22.27122         1.34989
O         10.59462        11.00347        -1.08235
H         10.70943        10.18519        -1.61079
O          4.61366         9.35742         2.32172
H          4.49008        10.14837         2.88913
O          4.03772        21.04131         2.52318
H          3.62867        20.29509         3.02771
O         14.57517        12.57450        -1.76319
H         14.37596        11.63003        -1.98427
O          2.61093        12.69439         2.80643
H          3.16844        13.47741         3.05585
O         19.00629        29.49602        -1.08907
H         19.80625        28.93039        -1.15722
O          1.38300        24.57357        -1.88243
H          2.16608        23.98347        -1.95061
O          5.19007        23.22680         2.05413
H          4.56072        22.71020         2.60792
O          7.74885        23.00698         1.69022
H          8.72925        23.07153         1.81113
O         14.34685         9.90739        -1.45976
H         15.06149         9.44687        -1.94910
O         11.72081         4.26965         0.39252
H         12.46867         4.45596         1.00117
O          1.97799        10.19207        -0.99400
H          2.70761         9.74994        -1.49383
O          9.29764        17.96155        -2.72091
H          8.79586        18.71352        -3.11195
O         13.01005         7.42605         1.69882
H         13.71913         6.83443         2.06755
O         11.30827        19.33798        -2.87417
H         10.95490        18.55600        -3.36118
O         11.34432        11.91800         2.38314
H         10.50342        11.57829         2.77156
O          4.31267        21.53361        -1.09526
H          4.45300        20.65578        -1.52971
O          3.93814        15.05256         2.64746
H          3.40608        15.80765         2.98445
O         13.75646        10.46910         2.12047
H         13.01657        10.95019         2.56583
H          1.31392         2.60939        -2.11561
H         -0.77232         3.08887        -0.83140
H         -0.75445         4.91300         0.89846
H         -0.77739         7.93714         2.04339
H         -0.95386        10.39686         1.87111
H         -1.08131        12.32545         1.25606
H         -1.01410        14.74621         1.13328
H         -0.94568        16.63750         1.35588
H         -0.96500        19.05928         1.26470
H         -0.97538        20.96068         0.94271
H         -0.99384        23.31484         0.28749
H         -1.02757        25.14503        -0.62350
H         -1.08551        27.55954        -0.57777
H          0.27150        29.77052        -0.99679
H          3.66371         2.95633        -2.46675
H          2.40152        30.98264        -0.95681
H          6.06735         3.04372        -2.53845
H          4.83209        31.07376        -0.64182
H          8.54065         3.00746        -2.46962
H          7.35979        31.10374        -0.48273
H         10.99596         2.91643        -2.26937
H          9.80703        31.10855        -0.44037
H         13.58955         2.49477        -1.40089
H         12.34238        30.98596        -0.25131
H         15.94871         2.33723        -0.49988
H         14.66153        30.93410         0.04967
H         18.32201         2.26795         0.01257
H         16.99701        30.95783         0.48016
H         20.46382         3.45659         0.39521
H         21.72219         5.56640         0.71182
H         21.77800         8.01300         0.87508
H         21.79507         9.92124         1.07296
H         21.85615        12.35236         0.85401
H         21.75403        14.36365         1.14349
H         21.63125        16.76588         1.12008
H         21.39466        18.56120         1.54229
H         21.32953        20.94842         1.84490
H         20.78533        22.85673         2.42898
H         20.84071        25.32112         2.47433
H         21.39174        27.18667         1.81472
H         21.15531        29.59424         2.38775
H         19.30023        30.93874         1.42637
