         638
 CSIRO Nanostructure Databank - Neutral Graphene Oxide Data Set
C         23.10450        69.79099         1.12474
C         23.03473        71.24798         1.45444
C         21.83282        71.92211         0.85710
C         23.04994        74.02055         0.64774
C         21.85785        73.25609         0.55193
C         25.62897        65.57539         1.07628
C         25.60118        66.99841         1.02032
C         24.37832        67.69562         0.96062
C         25.56047        69.85261         1.24184
C         24.32301        69.11447         1.08336
C         25.53934        71.29346         1.22187
C         24.32300        71.97661         1.16065
C         25.51048        74.10606         0.79441
C         24.28920        73.39224         0.89991
C         28.06702        61.30542         1.55422
C         28.08188        62.73567         2.00230
C         26.83377        63.47805         1.57387
C         28.11116        65.56557         1.20123
C         26.82024        64.83408         1.30120
C         28.10650        67.05930         1.10964
C         26.81845        67.76477         1.13555
C         28.04360        69.92313         1.64797
C         26.79000        69.15487         1.27908
C         28.01179        71.35626         1.17496
C         26.79064        72.02098         1.10553
C         27.97114        74.16390         0.76864
C         26.75366        73.45489         0.88725
C         30.33252        57.08277         0.57914
C         30.34490        58.50184         0.65178
C         29.18719        59.22121         0.94216
C         30.47169        61.35166         0.99381
C         29.20545        60.63999         1.15183
C         30.49132        62.79123         1.20814
C         29.35452        63.45247         1.61399
C         30.60492        65.66470         1.42533
C         29.34382        64.94008         1.83139
C         30.58072        67.07568         1.38925
C         29.36334        67.80186         1.37732
C         30.52899        69.94864         1.09017
C         29.33748        69.20416         1.35714
C         30.44570        71.34873         0.79016
C         29.23733        72.04547         0.90251
C         30.42548        74.20584         0.64618
C         29.21275        73.49521         0.74226
C         32.77864        52.80002         0.28022
C         32.76894        54.20522         0.28684
C         31.53930        54.94490         0.41400
C         32.73650        57.04873        -0.17690
C         31.49406        56.33614         0.30960
C         32.73378        58.53983         0.07210
C         31.60470        59.22207         0.44152
C         32.87815        61.38853         0.46645
C         31.62443        60.67048         0.63313
C         32.92556        62.80438         0.67813
C         31.74587        63.51797         1.03808
C         33.11970        65.62910         1.25945
C         31.78316        64.92352         1.19755
C         33.05346        67.10052         0.96540
C         31.87002        67.84833         1.51422
C         32.97222        69.95125         0.71003
C         31.77773        69.27044         1.02838
C         32.94240        71.37777         0.41247
C         31.61629        72.04656         0.13655
C         32.84503        74.22134         0.22991
C         31.66421        73.54031         0.41419
C         35.23619        48.49434         0.48967
C         35.20427        49.91860         0.40478
C         33.99838        50.64979         0.32746
C         35.23693        52.78023         0.16677
C         33.99665        52.06710         0.25320
C         35.22774        54.21669         0.10730
C         34.01033        54.91158         0.21558
C         35.26246        57.11245         0.01784
C         33.99101        56.40606         0.43152
C         35.26743        58.49556        -0.09183
C         33.98326        59.26363        -0.34797
C         35.27520        61.39032        -0.07492
C         34.04177        60.69806         0.10053
C         35.29353        62.79440        -0.04293
C         34.14201        63.52025         0.37296
C         35.38830        65.65976         0.15206
C         34.20991        64.92536         0.50823
C         35.40795        67.08581         0.22910
C         34.19113        67.78912         0.58235
C         35.40271        69.92224         0.25481
C         34.18919        69.23341         0.54893
C         35.39412        71.39695         0.41525
C         34.09657        72.07867         0.23410
C         35.36019        74.24426        -0.17582
C         34.05797        73.49547        -0.28926
C         37.73844        44.20232         0.09860
C         37.69218        45.62734         0.12783
C         36.50355        46.33497         0.31813
C         37.68169        48.47557         0.52826
C         36.46113        47.77227         0.45277
C         37.67551        49.93223         0.71150
C         36.43500        50.65607         0.41949
C         37.73489        52.74531         0.13070
C         36.46889        52.05185         0.25878
C         37.65378        54.09952        -0.54160
C         36.46568        54.93690        -0.08169
C         37.70221        57.08242        -0.29630
C         36.47611        56.34346        -0.13395
C         37.71724        58.46431        -0.18256
C         36.50262        59.22940        -0.15623
C         37.75136        61.39747        -0.20700
C         36.52018        60.64937        -0.19919
C         37.78052        62.78569        -0.33745
C         36.49032        63.51750        -0.59820
C         37.77360        65.67639        -0.43436
C         36.55915        64.97533        -0.24609
C         37.77064        67.09067        -0.44024
C         36.57896        67.80616        -0.13367
C         37.75495        70.02503        -0.65822
C         36.55957        69.25148        -0.11890
C         37.85633        71.43630        -0.15445
C         36.65772        72.16168         0.22599
C         37.82335        74.28852        -0.27817
C         36.59137        73.61945        -0.06079
C         40.14783        39.96091         0.11458
C         40.17331        41.34770        -0.06663
C         38.96627        42.09537        -0.00202
C         40.15689        44.21538        -0.63292
C         38.92266        43.49070        -0.13934
C         40.13347        45.68955        -0.27576
C         38.95735        46.34463        -0.02601
C         40.20324        48.59167         0.07969
C         38.91698        47.82007         0.07887
C         40.28292        49.90841         0.84076
C         38.97176        50.70447         0.80551
C         40.21923        52.78202         0.10509
C         38.95516        52.10797         0.31897
C         40.24360        54.16630        -0.20482
C         38.98029        54.85819        -0.55917
C         40.25426        57.06512        -0.29124
C         38.97619        56.35872        -0.50823
C         40.27098        58.46247        -0.20772
C         38.99908        59.16941         0.01455
C         40.29921        61.34438        -0.22970
C         39.01724        60.66753         0.02077
C         40.27490        62.81489        -0.13048
C         39.00408        63.53969        -0.32821
C         40.28239        65.67370        -0.57645
C         39.02426        64.92828        -0.49800
C         40.27640        67.06634        -0.68310
C         39.00324        67.82740        -0.90742
C         40.28382        70.01687        -0.86021
C         39.06816        69.26365        -0.35494
C         40.25092        71.40128        -0.90572
C         39.17476        72.13518        -0.13418
C         40.17599        74.30202        -0.89731
C         39.06723        73.61445        -0.45980
C         42.70474        35.63663         0.58950
C         42.61674        37.10518         0.87235
C         41.35952        37.82847         0.44077
C         42.60711        39.87670        -0.17990
C         41.34404        39.17749         0.18034
C         42.65574        41.35853        -0.17088
C         41.44740        42.06760        -0.18106
C         42.67349        44.17266        -0.24503
C         41.45516        43.49481        -0.28040
C         42.70949        45.64773        -0.41196
C         41.40071        46.43579        -0.43460
C         42.68229        48.49962         0.13674
C         41.47485        47.84442        -0.02818
C         42.71338        49.95290         0.28672
C         41.50263        50.67217         0.39714
C         42.70016        52.77323         0.07464
C         41.46280        52.07326         0.21917
C         42.70266        54.19028        -0.05150
C         41.45364        54.89064        -0.19026
C         42.68231        57.05897        -0.26167
C         41.46832        56.33789        -0.27888
C         42.70233        58.46260        -0.35639
C         41.48579        59.18375        -0.28237
C         42.75509        61.31396        -0.51621
C         41.48971        60.63655        -0.32067
C         42.75955        62.79104        -0.83539
C         41.56870        63.55217        -0.30168
C         42.77966        65.66055        -0.85302
C         41.53295        64.98652        -0.59816
C         42.78002        67.08719        -0.98890
C         41.55743        67.84269        -0.54462
C         42.70092        69.92637        -1.27232
C         41.49876        69.26825        -1.05570
C         42.71534        71.37712        -1.49117
C         41.39961        72.15315        -1.41776
C         42.62467        74.00626        -0.24674
C         41.49763        73.68069        -1.26133
C         45.15064        32.78915         0.89586
C         43.94830        33.43486         0.92975
C         45.13017        35.53830         0.29276
C         43.91709        34.93115         1.09567
C         45.11186        37.04081         0.40015
C         43.93445        37.71920         0.32530
C         45.18709        39.87459        -0.24661
C         43.89147        39.12692        -0.13669
C         45.17183        41.34676        -0.15089
C         43.91569        42.03612        -0.16194
C         45.15498        44.15034         0.02156
C         43.91618        43.46272        -0.11925
C         45.12259        45.60076         0.27140
C         43.91573        46.37556        -0.01002
C         45.18803        48.48626         0.13756
C         43.92909        47.76375         0.10844
C         45.20085        49.93764         0.16222
C         43.94903        50.64500         0.23274
C         45.15926        52.79734         0.16186
C         43.93904        52.07832         0.18150
C         45.16402        54.18616        -0.03250
C         43.93447        54.87531        -0.09797
C         45.10773        56.93864        -0.86127
C         43.99066        56.36782        -0.00435
C         45.13411        58.44617        -0.71965
C         43.97383        59.16376        -0.54409
C         45.17594        61.35411        -0.93674
C         43.94757        60.62154        -0.64234
C         45.25698        62.72980        -0.90379
C         44.04727        63.50967        -0.42159
C         45.29910        65.68061        -0.90496
C         43.99322        64.94883        -0.87565
C         45.18652        67.06838        -1.47083
C         43.97781        67.77418        -1.31682
C         45.14942        69.95157        -1.48307
C         43.96328        69.23020        -1.38076
C         45.18567        71.38093        -1.27116
C         43.97400        72.09457        -1.20099
C         45.15176        74.10563        -0.55401
C         43.95194        73.43654        -0.72184
C         46.39504        33.49422         0.89226
C         47.64124        35.60853         0.66505
C         46.43712        34.87461         0.67813
C         47.68608        37.01922         0.53549
C         46.39666        37.79340         0.69169
C         47.69212        39.92198         0.24506
C         46.46152        39.14678         0.02657
C         47.65998        41.32243         0.13131
C         46.39414        42.03391        -0.01569
C         47.65223        44.18243         0.10997
C         46.39075        43.46707         0.06154
C         47.69167        45.59902         0.03932
C         46.44759        46.36182         0.24485
C         47.62373        48.52265        -0.31171
C         46.38589        47.79960         0.00770
C         47.66807        49.96450        -0.01100
C         46.42040        50.63302         0.19083
C         47.68035        52.81970         0.17385
C         46.41952        52.09558         0.57667
C         47.68374        54.15447        -0.14491
C         46.42824        54.91234        -0.22799
C         47.67672        56.94674        -1.02846
C         46.42424        56.23656        -0.57280
C         47.67962        58.43082        -0.60546
C         46.40245        59.11196        -1.07207
C         47.71944        61.29686        -0.96343
C         46.40796        60.59135        -1.24035
C         47.67134        62.73497        -1.41827
C         46.48660        63.41805        -1.27970
C         47.67582        65.60727        -1.93197
C         46.40409        64.87268        -1.57613
C         47.72069        67.07235        -1.79862
C         46.40885        67.75095        -1.89179
C         47.72699        69.89403        -1.37417
C         46.41057        69.27891        -1.82872
C         47.69379        71.40802        -1.33607
C         46.43239        72.06795        -1.13576
C         47.62169        74.16398        -0.72705
C         46.40543        73.46864        -0.83434
C         48.87140        37.74929         0.48652
C         50.11298        39.91215         0.47365
C         48.90872        39.19292         0.42720
C         50.12700        41.33005         0.37180
C         48.88764        42.04266         0.22371
C         50.12795        44.17836         0.17561
C         48.89182        43.47032         0.15109
C         50.14665        45.59681         0.05872
C         48.91116        46.28823        -0.06676
C         50.17548        48.48213        -0.08861
C         48.93361        47.74097        -0.31700
C         50.14965        49.89483        -0.02918
C         48.90303        50.61285         0.04848
C         50.19582        52.76127        -0.03044
C         48.95676        52.06681         0.44988
C         50.18088        54.15915        -0.26010
C         48.94113        54.86534        -0.36765
C         50.18014        56.94972        -0.69984
C         48.95770        56.24357        -0.64616
C         50.21457        58.46249        -0.60236
C         48.94129        59.12014        -1.03140
C         50.19812        61.32368        -1.28241
C         48.92173        60.53595        -1.53674
C         50.21453        62.66288        -1.50682
C         48.94388        63.36731        -1.83147
C         50.22716        65.62368        -1.75446
C         48.97357        64.86404        -2.01977
C         50.16324        67.02994        -1.73180
C         48.93009        67.74704        -1.83218
C         50.22418        69.95907        -1.69756
C         48.94041        69.24874        -2.10002
C         50.16503        71.47513        -1.82937
C         48.88584        72.11640        -1.29482
C         50.05709        74.25633        -0.79320
C         48.86888        73.52786        -0.96813
C         51.34404        42.05409         0.40831
C         52.58854        44.19216         0.31949
C         51.37411        43.46412         0.30118
C         52.61927        45.60822         0.22771
C         51.38166        46.32390         0.09477
C         52.62632        48.46655         0.12203
C         51.39347        47.75538         0.05356
C         52.62755        49.89176         0.06634
C         51.39574        50.60399         0.02942
C         52.64679        52.73925        -0.15130
C         51.40432        52.03837        -0.05184
C         52.64708        54.14960        -0.28987
C         51.41584        54.86018        -0.41492
C         52.66680        57.00326        -0.60131
C         51.41140        56.27259        -0.59041
C         52.71451        58.39172        -0.85225
C         51.43725        59.08518        -1.28285
C         52.73172        61.30713        -0.99819
C         51.44370        60.57404        -0.98320
C         52.74008        62.76073        -1.27473
C         51.50373        63.41191        -1.83846
C         52.65714        65.59152        -1.31620
C         51.45445        64.90862        -1.59328
C         52.58543        67.08737        -1.07867
C         51.46413        67.78894        -1.86396
C         52.64030        69.95260        -1.14001
C         51.39582        69.28106        -1.54896
C         52.63854        71.41266        -0.97042
C         51.45254        72.18206        -1.38742
C         52.53454        74.19271        -0.23309
C         51.37779        73.64971        -0.92481
C         53.83867        46.33363         0.27246
C         55.08814        48.47667         0.24033
C         53.87040        47.74728         0.21200
C         55.11368        49.88923         0.16027
C         53.87054        50.60410         0.06353
C         55.11074        52.74029        -0.02980
C         53.88079        52.02253        -0.04839
C         55.10428        54.16113        -0.10837
C         53.88164        54.86982        -0.25998
C         55.10079        57.01379        -0.21983
C         53.88078        56.29248        -0.37060
C         55.11447        58.43313        -0.38464
C         53.93482        59.09928        -0.76867
C         55.19100        61.32213        -0.72762
C         54.00797        60.53722        -1.25205
C         55.14194        62.73968        -0.72975
C         53.91097        63.46260        -1.07577
C         55.07390        65.64213        -0.70730
C         53.87933        64.91271        -1.08416
C         55.06967        67.04826        -0.65415
C         53.93237        67.80083        -1.30158
C         54.87847        69.91491        -0.06392
C         53.77930        69.24008        -0.85015
C         55.09943        71.34961        -0.55717
C         53.78115        72.09649        -0.59706
C         54.94623        74.15614         0.17394
C         53.75591        73.51202        -0.26246
C         56.33365        50.62556         0.17859
C         57.57594        52.78055         0.14212
C         56.35700        52.02959         0.10131
C         57.58889        54.17946         0.13134
C         56.32577        54.89683         0.03188
C         57.50304        57.03310         0.55930
C         56.30058        56.29316         0.04911
C         57.49233        58.49979         0.22190
C         56.35854        59.17203        -0.17191
C         57.48874        61.39281         0.07893
C         56.34653        60.63491        -0.29851
C         57.48393        62.78739        -0.00481
C         56.30741        63.48165        -0.39458
C         57.47675        65.65754        -0.16016
C         56.28147        64.92994        -0.40351
C         57.45689        67.04440        -0.00837
C         56.22234        67.76979        -0.21455
C         57.31257        69.82723         0.71029
C         56.17223        69.15336        -0.00417
C         57.36130        71.33712         0.55779
C         56.20887        72.04535         0.19541
C         57.31771        74.12625         0.87720
C         56.16110        73.45654         0.39283
C         58.80239        54.93912         0.13445
C         60.00484        57.08944         0.23554
C         58.81361        56.33742         0.24298
C         60.02893        58.49993         0.40912
C         58.73568        59.21056         0.57653
C         60.00647        61.42165         0.42859
C         58.71924        60.70675         0.53993
C         59.99618        62.80901         0.37738
C         58.68641        63.56453         0.49480
C         59.98852        65.69031         0.23209
C         58.78400        64.90530        -0.22829
C         59.95318        67.07244         0.33377
C         58.68038        67.79000         0.24552
C         59.88351        69.97092         0.44555
C         58.63034        69.14087         0.47408
C         59.76113        71.23397         1.31270
C         58.51346        72.02827         0.99606
C         59.72039        74.24527         1.57708
C         58.50083        73.43594         1.14206
C         61.20951        59.24139         0.40033
C         62.44317        61.39672         0.48932
C         61.23696        60.67951         0.44601
C         62.45745        62.81796         0.52527
C         61.21735        63.53350         0.41659
C         62.39942        65.66412         0.75184
C         61.20913        64.96704         0.45216
C         62.36708        67.08194         0.93348
C         61.14501        67.80015         0.70575
C         62.27744        69.90422         1.26171
C         61.12251        69.19913         0.83148
C         62.27041        71.32444         1.43126
C         61.01317        72.12451         1.15692
C         62.23399        74.13119         1.98698
C         60.91680        73.38570         2.04009
C         63.65679        63.54717         0.71972
C         64.82241        65.67217         1.20344
C         63.64651        64.94945         0.89046
C         64.78622        67.05895         1.51128
C         63.52447        67.77116         1.35770
C         64.63131        69.87968         2.01110
C         63.47599        69.17901         1.56747
C         64.65304        71.28272         2.00025
C         63.44096        72.00857         1.74275
C         64.71961        74.23315         1.82888
C         63.41199        73.47074         1.87193
C         65.90502        67.73011         2.00838
C         67.07258        69.84857         2.52747
C         65.78182        69.10148         2.59947
C         67.10959        71.23681         2.40292
C         65.89257        71.99288         2.21932
C         67.17263        74.05742         2.28818
C         65.94516        73.40098         2.14461
C         68.34899        71.94983         2.49728
C         68.36712        73.32966         2.46753
O         58.59764        59.99307         1.82506
O         46.33607        68.60572        -3.09565
O         39.06207        55.63422        -1.80981
O         48.24851        48.12285        -1.57666
O         49.00164        63.97230        -3.18492
O         45.79560        45.98213         1.51700
O         42.12208        46.11191        -1.68515
O         45.98640        39.28146        -1.34495
O         41.08870        63.24972         1.03972
O         36.13989        71.83954         1.63126
O         39.00662        59.91008         1.29661
O         41.94427        71.74375        -2.70492
O         39.42766        48.55536        -1.14859
O         28.30200        66.18424        -0.09288
O         38.22373        50.46460         2.04257
O         43.15663        39.26725        -1.41400
O         46.38386        59.71232        -2.40697
O         46.67611        65.21570        -2.95170
O         52.08077        60.96244         0.27844
O         51.77413        73.24897        -2.32262
O         50.38002        58.73605         0.82626
H         49.54300        58.45278         1.26702
O         28.00895        70.01234         3.12413
H         27.18295        70.48299         3.36790
O         48.79133        60.48590        -2.98416
H         49.49689        59.88068        -3.31182
O         57.38762        56.98478         2.02741
H         57.44007        56.04166         2.29158
O         47.65049        58.46693         0.85811
H         47.66278        59.42575         1.10768
O         40.09440        44.17775        -2.09450
H         40.80385        44.78372        -2.41821
O         42.68686        37.38883         2.29375
H         43.34458        36.75830         2.68316
O         59.68830        70.73222         2.66105
H         59.61920        71.50814         3.26654
O         60.12242        75.08735         0.49135
H         60.52148        74.49229        -0.18650
O         52.24932        67.26570         0.32926
H         52.68990        66.55629         0.84258
O         58.46971        63.84425         1.90062
H         58.41463        62.98834         2.37625
O         44.21188        35.23032         2.49070
H         43.80257        34.53187         3.04279
O         37.32925        53.77315        -1.92931
H         37.70696        54.50210        -2.47775
O         56.99884        69.61939         2.14028
H         56.06809        69.92986         2.26218
O         41.71614        67.99835         0.92738
H         40.85314        68.36428         1.25934
O         33.82006        73.35571        -1.75947
H         34.61717        72.93373        -2.14804
O         51.62277        63.25219        -3.29729
H         50.75781        63.55324        -3.67785
O         54.12950        60.45252        -2.71109
H         55.04437        60.17242        -2.92518
O         38.91033        67.93063        -2.38015
H         38.76050        67.02748        -2.73376
O         64.66747        75.38830         2.67577
H         64.59420        75.08604         3.60383
O         51.75640        67.71873        -3.29480
H         50.99106        68.11464        -3.76947
O         22.85949        71.33911         2.93920
H         22.75286        72.29220         3.14821
O         31.39386        71.92081        -1.30601
H         32.13104        72.41859        -1.74205
O         32.10746        67.93035         2.99338
H         32.79269        68.62030         3.13326
O         41.90450        74.27019        -2.51233
H         42.06982        73.52442        -3.13900
O         37.55311        70.16288        -2.09873
H         37.93695        69.36514        -2.54342
O         39.64616        72.07529         1.29457
H         38.92552        72.45892         1.84395
O         29.18314        65.18166         3.27892
H         30.05722        65.04007         3.70206
O         44.13021        63.52353         1.03128
H         44.79395        64.21340         1.26900
O         46.38853        52.10836         2.04936
H         47.30468        51.87391         2.34668
O         33.49792        65.53888         2.69467
H         32.99543        66.26182         3.15046
O         50.06435        71.69966        -3.27853
H         50.54772        72.54599        -3.45688
O         42.33043        73.39050         1.01390
H         41.36073        73.23919         1.10076
O         61.09844        72.64200        -0.19609
H         60.90587        71.89528        -0.81609
O         54.31091        67.82644        -2.69966
H         53.49894        67.98461        -3.24119
O         65.45575        68.93344         4.05222
H         64.59041        68.47258         4.09680
O         60.03010        70.37166        -0.96363
H         60.14237        69.55554        -1.49579
O         42.63958        62.89329        -2.28119
H         43.42606        62.46761        -2.68574
O         47.62630        56.97057        -2.48932
H         47.79103        56.05993        -2.81329
O         44.80873        56.67767        -2.25715
H         45.55480        57.05227        -2.78209
O         48.81467        69.36989        -3.52972
H         49.05783        70.29487        -3.77995
O         36.30028        63.50136        -2.07240
H         36.06500        62.58221        -2.32522
O         47.88214        69.49158         0.02438
H         47.29072        70.04852         0.57364
O         33.92555        59.33872        -1.82418
H         33.71934        58.41961        -2.13053
O         33.86878        56.60926         1.87362
H         34.63703        56.18329         2.30812
O         45.75509        65.80875         0.51806
H         45.13424        66.42996         0.95942
O         44.88586        35.21450        -1.09357
H         45.64202        35.54171        -1.62421
O         28.02757        62.71034         3.47791
H         28.23472        63.63216         3.77275
O         60.67631        73.04265         3.43161
H         61.49152        72.62581         3.78302
O         39.19183        69.15991         1.08863
H         39.29919        70.08040         1.43624
O         32.82168        56.83574        -1.62346
H         31.92786        56.98050        -1.99982
O         46.30946        38.10438         2.12180
H         46.35326        37.25671         2.61378
O         55.55141        71.23446        -1.93648
H         55.62405        72.13835        -2.30823
O         40.55065        49.52542         2.21779
H         39.73004        49.73275         2.73024
O         49.09394        52.04290         1.94143
H         49.32644        52.95465         2.22255
O         51.28706        58.93954        -2.71960
H         52.09024        59.32193        -3.14062
O         44.35900        56.68438         1.37530
H         43.69863        56.27147         1.97010
O         54.38181        70.03600         1.31875
H         53.87335        69.22210         1.52576
O         47.89116        61.28335         0.49222
H         47.23063        61.89656         0.88129
O         59.00039        64.57709        -1.63410
H         58.95190        65.40731        -2.15235
H         23.02770        75.09410         0.41429
H         25.48241        75.18708         0.59025
H         27.94593        75.25791         0.65304
H         30.40836        75.30604         0.68339
H         32.87686        75.31736         0.32874
H         35.34062        75.30168        -0.48537
H         37.80800        75.38050        -0.42063
H         40.06325        75.36420        -1.16497
H         42.70959        75.12219        -0.12271
H         45.15670        75.14160        -0.18356
H         47.61419        75.23129        -0.46190
H         49.99635        75.28180        -0.40050
H         52.45786        75.17137         0.26194
H         54.91129        75.23508         0.38537
H         57.27885        75.21506         1.02788
H         59.41859        74.91894         2.42067
H         62.23427        75.22440         2.11561
H         64.84619        74.62559         0.78023
H         67.20062        75.15515         2.24267
H         22.16473        69.22649         1.02846
H         20.89869        71.34795         0.77336
H         20.94053        73.75419         0.20445
H         24.66947        65.03605         1.06146
H         23.43727        67.13118         0.88307
H         27.12969        60.74193         1.68078
H         25.87829        62.93351         1.63461
H         29.40236        56.55058         0.83231
H         28.23800        58.68207         1.08236
H         31.82619        52.25210         0.33591
H         30.61795        54.39116         0.65209
H         34.28654        47.93997         0.46702
H         33.03752        50.11514         0.36230
H         36.82297        43.64097         0.34298
H         35.55469        45.77929         0.36211
H         39.17934        39.46173         0.27071
H         38.03363        41.55719         0.23006
H         42.36042        35.31156        -0.40688
H         40.40509        37.31891         0.64661
H         45.17576        31.68954         0.86530
H         43.00482        32.87672         0.84420
H         47.33144        32.93376         1.02688
H         48.58545        35.06338         0.82164
H         49.83037        37.20904         0.47830
H         51.06683        39.37439         0.57852
H         52.29075        41.50346         0.51441
H         53.53747        43.64398         0.41934
H         54.78525        45.77949         0.36056
H         56.03809        47.92619         0.31384
H         57.28294        50.07588         0.26659
H         58.52960        52.23452         0.20270
H         59.75854        54.40190         0.03580
H         60.96210        56.56232         0.09670
H         62.17037        58.71069         0.31717
H         63.39677        60.85115         0.54643
H         64.60859        63.00180         0.80787
H         65.77494        65.12920         1.29978
H         66.85762        67.18999         2.11706
H         68.01228        69.29303         2.66980
H         69.28091        71.38153         2.62915
H         69.31871        73.87044         2.56724
