         324
 CSIRO Nanostructure Databank - Neutral Graphene Oxide Data Set
C          1.02301         3.75519         1.20081
C         -0.14195         4.25052         0.64339
C          1.05560         6.16262        -0.28895
C         -0.12703         5.43705        -0.11221
C          1.10127         7.39258        -1.07680
C          0.07264         7.75558        -1.93430
C          1.08232         9.91775        -2.37924
C          0.13601         8.96637        -2.67364
C          1.10304        12.29860        -2.53901
C         -0.06210        13.06623        -2.67014
C          1.04171        14.94279        -1.60104
C         -0.10725        14.36146        -2.16514
C          0.99245        16.33177        -1.04470
C         -0.10594        17.24454        -1.38335
C          1.15090        19.19307        -0.56095
C         -0.05799        18.55608        -1.01979
C          1.16490        20.65969        -0.36632
C         -0.03807        21.37156         0.08079
C          1.28198        23.35364         0.73533
C          0.03053        22.64821         0.53395
C          1.28936        24.75490         1.09943
C          0.09561        25.50990         1.19618
C          1.34330        27.56044         1.59073
C          0.11895        26.87306         1.44210
C          1.37677        28.98078         1.78396
C          3.47634         3.90996         1.49277
C          2.24852         4.45354         1.02963
C          3.48349         6.41074         0.16247
C          2.25775         5.69202         0.32012
C          3.44962         7.75224        -0.41451
C          2.26500         8.23960        -0.96948
C          3.39602        10.59012        -1.21611
C          2.15446         9.65548        -1.39987
C          3.50168        12.01101        -1.72017
C          2.27136        12.81439        -1.94951
C          3.50375        14.79982        -1.12633
C          2.22601        14.17430        -1.53821
C          3.56594        16.22770        -0.68524
C          2.29004        17.00767        -0.57682
C          3.60789        19.13185        -0.20888
C          2.34711        18.48402        -0.51919
C          3.67865        20.45679         0.16575
C          2.50366        21.31896         0.01718
C          3.75259        23.27890         0.95019
C          2.48952        22.65870         0.63086
C          3.76451        24.68386         1.23333
C          2.54038        25.41371         1.29053
C          3.80443        27.51087         1.66520
C          2.56469        26.82753         1.52888
C          3.81565        28.93979         1.79596
C          2.56678        29.64783         1.86693
C          5.97504         3.82086         1.48338
C          4.67844         4.54353         1.21391
C          5.99282         6.40520         0.12182
C          4.68452         5.81068         0.57512
C          5.93039         7.90804        -0.06550
C          4.65041         8.54451        -0.49550
C          5.93191        10.51866        -1.30520
C          4.64541         9.87232        -0.89076
C          5.96741        12.02496        -1.15778
C          4.69903        12.66852        -1.65409
C          6.02590        14.89167        -1.57484
C          4.73057        14.15685        -1.69874
C          6.00834        16.28829        -1.07066
C          4.85529        16.95394        -0.78731
C          6.16830        19.00743         0.01857
C          4.87923        18.39405        -0.43356
C          6.15957        20.26316         0.84486
C          4.82305        21.01252         1.00032
C          6.21239        23.17241         1.14128
C          4.95023        22.52784         0.93391
C          6.20457        24.59333         1.41594
C          5.01361        25.33913         1.46970
C          6.24516        27.49850         1.74746
C          5.03726        26.78384         1.66102
C          6.26273        28.93179         1.75532
C          5.03276        29.63065         1.81482
C          8.43696         4.12889         2.09222
C          7.15703         4.73848         1.73434
C          8.49903         6.62071         0.60771
C          7.18117         6.06109         1.00967
C          8.53748         7.83765        -0.17280
C          7.24730         8.55516        -0.35924
C          8.54635        10.49329        -1.40196
C          7.23153         9.78874        -1.19163
C          8.53732        12.00777        -1.63036
C          7.25991        12.74231        -1.54592
C          8.56005        14.83210        -1.54927
C          7.30278        14.11990        -1.51781
C          8.52285        16.31671        -1.46478
C          7.33215        16.87616        -0.74824
C          8.73712        18.90705         0.03637
C          7.42069        18.17212        -0.01997
C          8.77818        20.28835         0.61722
C          7.48021        20.96214         1.06006
C          8.72348        23.12148         1.31846
C          7.43567        22.44063         1.16612
C          8.71532        24.61636         1.22801
C          7.47236        25.27443         1.72221
C          8.78539        27.51422         1.60192
C          7.52199        26.78421         1.84883
C          8.73342        28.94477         1.56293
C          7.49749        29.62218         1.69442
C         10.87674         4.23816         2.29569
C          9.64325         4.79263         1.85989
C         10.95900         6.47902         0.56407
C          9.65888         6.00778         1.06078
C         10.99415         7.74242        -0.27235
C          9.73737         8.48990        -0.46815
C         10.98885        10.59344        -1.04407
C          9.79358         9.86323        -0.94416
C         11.01249        12.01429        -1.29971
C          9.80877        12.72944        -1.46457
C         11.05257        14.87488        -1.76927
C          9.77695        14.15478        -1.56429
C         11.08093        16.40926        -1.73724
C          9.77595        17.14322        -1.54416
C         11.14485        19.13859        -0.67193
C          9.77940        18.60376        -1.05107
C         11.15477        20.50896        -0.16818
C         10.00265        21.09432         0.34924
C         11.24576        23.27270         0.70928
C         10.04521        22.44427         0.92428
C         11.24896        24.64986         0.97869
C          9.98169        25.39559         1.11977
C         11.25116        27.56494         1.39791
C         10.01111        26.85228         1.43662
C         11.18837        29.01296         1.24084
C          9.93443        29.64498         1.30682
C         13.32291         4.32658         2.58190
C         12.12779         4.86383         2.04948
C         13.42008         6.71749         1.03066
C         12.19630         6.03267         1.22846
C         13.49396         7.94589         0.28593
C         12.30532         8.44997        -0.42308
C         13.52230        10.68157        -0.66619
C         12.28779         9.90150        -0.85065
C         13.49273        12.04738        -1.05587
C         12.28686        12.72759        -1.33330
C         13.51237        14.88190        -1.66915
C         12.31765        14.14556        -1.57876
C         13.54629        16.31945        -1.48448
C         12.35047        17.06523        -1.37036
C         13.61595        19.20812        -1.02068
C         12.31234        18.45037        -0.94635
C         13.63697        20.56920        -0.35514
C         12.42143        21.22935        -0.08609
C         13.69334        23.27334         0.45525
C         12.45572        22.58946         0.34820
C         13.70943        24.63569         0.99916
C         12.45106        25.38396         1.07997
C         13.75931        27.39818         1.45554
C         12.47310        26.78071         1.34656
C         13.61860        29.54607         1.01104
C         12.27667        29.84725         0.77642
C         15.77070         4.37371         2.82417
C         14.56582         4.94634         2.34200
C         15.85760         6.83376         1.39738
C         14.61530         6.17555         1.59880
C         15.90238         8.10008         0.73566
C         14.69855         8.68060         0.21451
C         15.97679        10.76156        -0.35562
C         14.72450        10.03394        -0.31034
C         16.02098        12.06350        -0.88515
C         14.77883        12.68095        -1.37950
C         16.09791        14.89094        -1.94135
C         14.77819        14.14431        -1.81983
C         16.05372        16.29670        -1.38937
C         14.83658        16.95640        -1.26801
C         16.11537        19.05701        -0.56616
C         14.81919        18.33965        -0.72783
C         16.14428        20.52660        -0.29030
C         14.86344        21.25297        -0.20457
C         16.15953        23.38700         0.03631
C         14.91128        22.62843         0.14434
C         16.17779        24.78323         0.24890
C         15.02686        25.43155         0.86701
C         16.08607        27.68471         0.52554
C         14.94157        26.89041         0.90985
C         16.00078        29.15355         0.28292
C         14.77415        29.91923         0.31379
C         18.23346         4.38600         3.03351
C         17.00863         4.98519         2.58515
C         18.31228         6.86857         1.66174
C         17.05915         6.23385         1.88450
C         18.36356         8.14098         1.01191
C         17.15205         8.77555         0.58765
C         18.45055        10.74522        -0.08221
C         17.19679        10.09362         0.04930
C         18.48340        12.17856        -0.42564
C         17.24633        12.82857        -0.94126
C         18.57628        14.85454        -1.59860
C         17.28959        14.13293        -1.38418
C         18.55711        16.33599        -1.52061
C         17.32913        16.97243        -1.30584
C         18.59474        19.23011        -1.34155
C         17.30690        18.44037        -1.20403
C         18.65184        20.64769        -0.93208
C         17.42521        21.30114        -0.43258
C         18.52004        23.52995        -0.64003
C         17.35822        22.77206        -0.40368
C         18.50745        24.92488        -0.46453
C         17.33023        25.57561        -0.00280
C         18.54033        27.82375         0.13867
C         17.26883        27.00981         0.18565
C         18.35988        29.12372        -0.65579
C         17.08458        29.80762        -0.27297
C         19.44065         4.98732         2.79144
C         20.75436         6.88027         1.86365
C         19.51219         6.24030         2.10511
C         20.80707         8.10114         1.22348
C         19.62328         8.76525         0.79125
C         20.91569        10.66297        -0.21458
C         19.66160        10.07315         0.19544
C         20.99992        11.92132        -0.71790
C         19.83578        12.81237        -0.69309
C         21.09381        14.97480        -1.20885
C         19.88500        14.14561        -1.38040
C         21.04745        16.31638        -1.37447
C         19.80755        17.06091        -1.51184
C         21.04637        19.25755        -1.48848
C         19.84857        18.47251        -1.45416
C         21.02161        20.63110        -1.39593
C         19.82572        21.35270        -1.05487
C         20.97213        23.54360        -0.35259
C         19.82568        22.87801        -1.10236
C         20.95865        24.87550        -0.21981
C         19.79088        25.66999        -0.79158
C         20.88033        27.89888        -0.57085
C         19.78840        27.12254        -0.36763
C         20.80530        29.35153        -0.43644
C         19.60905        29.96996        -0.48053
O         19.18799        12.94897         0.61941
O         17.00508        20.76035         0.88607
O         11.09964        15.68967        -2.99540
O          6.87759         6.01002         2.43033
O          6.83332        20.17032         2.12960
O         12.53512         8.81510        -1.82195
O          3.65254        15.12174         0.29420
O          9.11066        25.12702        -0.08511
O          6.58773         8.71322         0.95946
O          1.07209        11.05355        -3.17336
O          1.36112        16.41611         0.37308
O          6.47594         9.80295        -2.45265
O         14.76741        13.07549        -2.81290
O         15.48598        18.37760         0.57176
O         17.64247        19.07963        -2.47910
O          8.63071        11.04514        -2.74161
O         13.82034        28.64576         2.07056
O          2.31537        10.54482        -0.23481
O          9.17718        19.09163         1.39943
O          7.47107        16.92779         0.73259
O          8.88315        17.01265        -2.70214
O         19.32304        14.23348        -2.72508
O         14.61316        24.81124         2.13552
O          9.58218        22.53047         2.33557
O          1.97388        21.35798        -1.35878
O         20.00052        23.12252        -2.49453
O         11.02948         6.43156        -0.91666
O          5.31433        14.77432        -2.88176
O          5.72204        19.21571        -1.35775
O          7.58232        25.88300         3.03603
O          9.37207        19.43939        -2.17137
H          8.97820        18.84550        -2.85617
O         13.77648        19.49674        -2.45289
H         12.94953        19.91105        -2.77935
O         16.36124        15.05139        -3.36024
H         16.10578        14.20603        -3.79494
O         18.23114        28.81509        -2.06981
H         18.98103        28.22515        -2.31022
O          4.36503        20.75408         2.36470
H          5.17761        20.67059         2.92049
O          5.93849        12.18210         0.30567
H          5.54815        13.05374         0.53336
O         18.78782        28.22940         1.51712
H         18.89790        27.41958         2.05740
O          6.27015         5.84172        -1.19153
H          6.18158         4.86394        -1.12033
O         19.91929        25.72212        -2.23635
H         19.98079        24.76859        -2.56197
O          6.28355         3.07102         0.28507
H          7.12617         2.59213         0.43119
H          1.01603         2.81112         1.76388
H         -1.08867         3.70802         0.77436
H         -1.06624         5.79312        -0.55729
H         -0.78891         7.09273        -2.08651
H         -0.62504         9.18483        -3.43343
H         -0.94395        12.62425        -3.15096
H         -1.04549        14.92727        -2.23003
H         -0.99015        16.86537        -1.91353
H         -0.92805        19.19542        -1.22697
H         -1.00233        20.84309         0.08032
H         -0.90382        23.14182         0.83361
H         -0.87808        25.02133         1.06108
H         -0.82397        27.43542         1.50137
H          0.42476        29.52832         1.83975
H          3.47484         2.93647         2.00524
H          2.58800        30.74042         1.98871
H          5.84740         3.10105         2.34083
H          5.03731        30.72936         1.86452
H          8.44665         3.12266         2.53894
H          7.49216        30.72208         1.69177
H         10.85870         3.31099         2.88677
H          9.88541        30.73358         1.15719
H         13.28235         3.40562         3.18134
H         12.01279        30.71746         0.15625
H         15.72956         3.42441         3.37841
H         14.73083        30.80844        -0.33464
H         18.18592         3.42708         3.56940
H         16.97212        30.86694        -0.55610
H         20.37445         4.51652         3.13122
H         21.68144         6.39641         2.20298
H         21.78533         8.57610         1.07186
H         21.81737        10.03554        -0.21135
H         21.93863        12.28176        -1.16196
H         22.04592        14.47837        -0.97149
H         21.98304        16.88376        -1.27943
H         22.01014        18.76575        -1.67985
H         21.95339        21.19661        -1.53699
H         21.81964        22.94026         0.00860
H         21.78662        25.41143         0.27034
H         21.82625        27.45391        -0.91375
H         21.74103        29.92731        -0.38305
H         19.52900        31.06721        -0.47990
