         762
 CSIRO Nanostructure Databank - Neutral Graphene Oxide Data Set
C         22.77493        24.51022         1.07521
C         21.58714        25.24081         1.26893
C         22.85043        27.38188         1.13500
C         21.55680        26.61547         1.17180
C         22.72824        28.84697         0.74631
C         21.60048        29.66538         0.95729
C         22.71361        31.62364        -0.00315
C         21.62668        31.04192         0.68631
C         22.87200        33.08900        -0.23163
C         21.69836        33.83495        -0.36245
C         22.88484        35.94480        -0.14390
C         21.70894        35.23525        -0.38410
C         22.82394        37.42087         0.05573
C         21.82124        38.22752        -0.66109
C         23.03678        40.32978        -0.20577
C         21.91785        39.57503        -0.75414
C         23.07161        41.76848        -0.26935
C         22.10756        42.50678        -1.00064
C         23.01486        44.72199        -0.31435
C         22.04327        43.88123        -1.02874
C         23.20858        46.14529        -0.71496
C         22.19919        46.88179        -1.25704
C         23.37789        48.99223        -0.86763
C         22.31714        48.31002        -1.39437
C         25.23486        22.99562         0.24264
C         25.18024        24.39563         0.23915
C         23.87430        25.09961         0.33716
C         25.22169        27.28829         0.14665
C         23.90971        26.65135         0.28629
C         25.20920        28.76342         0.29691
C         23.87266        29.43392         0.17905
C         25.60839        31.76986        -0.45625
C         23.71983        30.71639        -0.36769
C         25.41987        33.17175        -0.16079
C         24.12922        33.81186        -0.16151
C         25.33122        35.97501         0.33998
C         24.11373        35.24357         0.02015
C         25.35615        37.41302         0.54889
C         24.07707        38.15817         0.48943
C         25.34136        40.30863         0.78799
C         24.11854        39.62015         0.32307
C         25.32107        41.79447         0.94473
C         23.96438        42.49885         0.72948
C         25.40889        44.68373         0.61955
C         24.09307        44.00568         0.46337
C         25.48624        46.03680         0.42220
C         24.54127        46.80742        -0.46291
C         25.54785        48.99234         0.33009
C         24.47445        48.31027        -0.22554
C         25.75925        50.40653         0.10878
C         27.67390        22.93610         0.36091
C         26.45841        22.28676         0.20031
C         27.61616        24.39162         0.58784
C         26.39185        25.13773         0.21546
C         27.74603        27.26002         0.06095
C         26.41747        26.55815         0.11536
C         27.76953        28.77553        -0.17324
C         26.51072        29.51100         0.27361
C         27.76122        31.70235         0.61487
C         26.57329        31.00070         0.12677
C         27.83863        33.15445         0.36070
C         26.59133        33.87516         0.16799
C         27.82548        35.93416         0.69574
C         26.54570        35.27284         0.39187
C         27.83393        37.42010         0.85143
C         26.55229        38.12525         0.70581
C         27.83298        40.24463         0.84028
C         26.62459        39.56627         0.71695
C         27.90172        41.75376         0.65581
C         26.60710        42.53116         0.86805
C         27.87774        44.64362         1.05572
C         26.62432        43.91122         0.89208
C         27.87893        46.00864         1.20067
C         26.62648        46.76662         1.01658
C         27.88291        48.97058         1.47701
C         26.60304        48.26408         1.08947
C         28.06020        50.44343         1.13126
C         26.90966        51.05610         0.40821
C         30.24489        20.30914        -0.41601
C         29.03005        20.94627        -0.20810
C         30.18933        22.90794         0.66004
C         28.96994        22.26381         0.29356
C         30.16075        24.34285         1.08232
C         28.86639        25.11603         0.94928
C         30.19765        27.34313         1.10631
C         28.98030        26.56684         0.56245
C         30.25412        28.76187         0.50605
C         29.04724        29.44603         0.29962
C         30.26831        31.64409         0.20157
C         29.05334        30.89360         0.57840
C         30.30885        33.11388         0.35701
C         29.05648        33.81129         0.38575
C         30.35175        35.99826         0.39980
C         29.05476        35.28917         0.10047
C         30.34752        37.40153         0.57941
C         29.10924        38.14807         0.71403
C         30.38075        40.22309         1.10375
C         29.09045        39.52841         0.84250
C         30.41363        41.70696         1.39210
C         29.08303        42.41005         1.36761
C         30.41087        44.61206         1.46953
C         29.10878        43.88934         1.39947
C         30.28535        45.94467         1.82771
C         29.07225        46.71875         1.62967
C         30.89012        49.13835         1.19083
C         29.02498        48.09126         1.79967
C         30.60730        50.44508         0.65321
C         29.38027        51.13431         0.88790
C         30.51736        53.20836         0.26127
C         29.37470        52.52128         0.68134
C         32.75633        18.73043        -0.30067
C         32.73126        20.23138        -0.53724
C         31.45766        20.92490        -0.07261
C         32.70659        22.85626         0.91388
C         31.42474        22.21847         0.50344
C         32.75137        24.36447         1.11527
C         31.45450        25.12322         1.14571
C         32.70481        27.25434         0.92863
C         31.50837        26.58937         0.90345
C         32.68659        28.76259         1.22980
C         31.48133        29.42794         0.60882
C         32.81160        31.57487         0.33905
C         31.58433        30.81447         0.17404
C         32.75557        33.02265         0.01658
C         31.50986        33.80736         0.20861
C         32.79879        35.97916         0.17463
C         31.55889        35.25861         0.26004
C         32.78159        37.39202         0.27381
C         31.58870        38.11711         0.53330
C         32.83255        40.27916         0.74337
C         31.62847        39.53876         0.72711
C         32.84327        41.71131         1.01145
C         31.68473        42.47195         1.21876
C         32.88150        44.65915         0.93732
C         31.69203        43.93791         1.27031
C         32.99066        46.07844         0.65415
C         32.11562        47.00070         1.24754
C         32.82739        48.79433        -0.31378
C         31.92968        48.32375         0.76025
C         32.74763        50.27879        -0.60883
C         31.68844        51.10922         0.01101
C         32.94048        53.21044        -0.47177
C         31.66746        52.51135        -0.13487
C         32.97146        54.64175        -0.80411
C         35.13130        18.80075        -0.87654
C         33.89066        18.04981        -0.52542
C         35.19542        20.15439        -0.25156
C         34.02785        20.82330        -0.01695
C         35.30593        22.87151         0.85657
C         34.00706        22.11780         0.69091
C         35.31233        24.38394         1.15991
C         34.00079        25.11840         0.91572
C         35.21380        27.25066         0.94940
C         33.98025        26.52439         0.92440
C         35.23246        28.73685         1.35055
C         33.98635        29.49163         0.93027
C         35.26434        31.64893         0.55899
C         34.01128        30.87647         0.63937
C         35.27389        32.99861         0.31358
C         34.04849        33.77706         0.00562
C         35.26885        35.94235         0.04229
C         34.06740        35.26977         0.09305
C         35.31965        37.40706        -0.11389
C         34.00107        38.17817         0.04476
C         35.31110        40.24826         0.45620
C         34.06162        39.59373         0.45195
C         35.36018        41.66192         0.62051
C         34.15188        42.38046         1.01573
C         35.34134        44.53449         0.22888
C         34.16760        43.93989         0.88494
C         35.25012        45.84788        -0.31741
C         34.10451        46.63602        -0.11352
C         35.18198        48.65590        -1.14342
C         34.08846        48.03137        -0.55080
C         35.15685        50.08705        -1.57215
C         33.95162        50.93270        -1.21679
C         35.29992        53.09619        -1.47834
C         34.13292        52.39173        -0.93028
C         35.32697        54.48780        -1.50450
C         34.10547        55.23259        -1.25197
C         37.66982        16.04138        -1.61095
C         36.48197        16.67441        -1.47446
C         37.71133        18.84751        -1.13100
C         36.41522        18.13386        -1.30128
C         37.72303        20.17077        -0.73603
C         36.52948        20.76600        -0.06305
C         37.63758        23.03583        -0.26820
C         36.57280        22.19871         0.38687
C         37.71376        24.44815         0.27871
C         36.48280        25.13584         0.56891
C         37.68380        27.26215         0.65300
C         36.43205        26.54558         0.69999
C         37.75619        28.59172         1.01105
C         36.51063        29.41086         0.86149
C         37.81620        31.66122         0.43771
C         36.54380        30.88397         0.54825
C         37.79408        32.99660        -0.19732
C         36.50815        33.74064        -0.06492
C         37.81961        35.92416        -0.18803
C         36.56553        35.21128         0.30974
C         37.83585        37.42838        -0.06460
C         36.56634        38.14078         0.15665
C         37.82424        40.21957         0.47811
C         36.55941        39.51272         0.33800
C         37.81478        41.66180         0.41445
C         36.56735        42.37358         0.43963
C         37.75926        44.39458        -0.30730
C         36.55156        43.78488         0.16158
C         37.70998        45.68678        -0.98948
C         36.39423        46.40420        -1.07781
C         37.73940        48.56798        -1.67180
C         36.40037        47.86704        -1.47465
C         37.77032        50.07071        -1.82240
C         36.45844        50.81466        -1.88870
C         37.81006        52.99678        -1.67244
C         36.50251        52.31652        -1.84903
C         37.80309        54.44713        -1.69058
C         36.56212        55.17333        -1.77493
C         37.78424        57.26160        -2.10583
C         36.61586        56.56272        -2.14228
C         40.20102        14.62407        -1.97695
C         40.18261        16.01441        -1.72905
C         38.94103        16.74081        -1.57358
C         40.20608        18.83597        -1.24663
C         38.95337        18.12943        -1.35244
C         40.21547        20.23999        -1.01123
C         38.96234        20.93518        -0.72804
C         40.17606        23.09038        -0.52916
C         38.94407        22.28805        -0.42316
C         40.22189        24.35421         0.30393
C         38.92289        25.11378         0.23381
C         40.25393        27.30376         0.36411
C         38.92957        26.57220         0.29779
C         40.26848        28.66319         0.93966
C         39.03151        29.15578         1.31587
C         40.31245        31.64055         0.55898
C         38.99920        31.26247         1.01651
C         40.35501        33.00606        -0.01066
C         39.08798        33.75576        -0.23955
C         40.30728        35.90475         0.18384
C         39.10631        35.21570        -0.05665
C         40.27705        37.34625         0.40415
C         39.10363        38.09129         0.29366
C         40.26925        40.25332         0.84212
C         39.03492        39.51032         0.54936
C         40.28597        41.75071         0.59643
C         39.01178        42.38774         0.26336
C         40.26014        44.45307        -0.32956
C         39.00443        43.74531        -0.15891
C         40.26724        45.81668        -0.64832
C         39.03425        46.47118        -1.10286
C         40.17883        48.67109        -1.04939
C         39.00032        47.93182        -1.21464
C         40.15668        50.12807        -1.11200
C         39.00103        50.81354        -1.43190
C         40.25056        52.97940        -1.40264
C         38.98189        52.27568        -1.47095
C         40.26363        54.41721        -1.73629
C         39.00486        55.15325        -1.69087
C         40.29073        57.37106        -1.53890
C         38.96950        56.63773        -1.42402
C         40.30037        58.77006        -1.51974
C         42.62150        14.60990        -2.01524
C         41.40325        13.93917        -2.11820
C         42.66408        15.99478        -1.76704
C         41.43048        16.70952        -1.62729
C         42.68587        18.80500        -1.24679
C         41.43752        18.11951        -1.38002
C         42.67230        20.20510        -1.01281
C         41.46164        20.92287        -0.94826
C         42.73248        23.11861        -0.44701
C         41.47850        22.39564        -0.78993
C         42.73270        24.43521        -0.04089
C         41.49375        25.17194         0.16423
C         42.71580        27.26550         0.83772
C         41.50058        26.51976         0.42835
C         42.73040        28.74587         0.79706
C         41.50144        29.43904         0.88323
C         42.71318        31.50476         0.02829
C         41.46500        30.87003         0.63153
C         42.74699        33.00418         0.25980
C         41.57687        33.76607         0.27708
C         42.82007        35.83382         0.80689
C         41.54005        35.17444         0.34981
C         42.83124        37.31414         0.48389
C         41.55376        38.02764         0.73532
C         42.77531        40.26181         0.37702
C         41.57602        39.52644         0.82953
C         42.76409        41.64314         0.14761
C         41.55010        42.41843         0.23649
C         42.75029        44.49467        -0.36518
C         41.51997        43.76915        -0.12780
C         42.72754        45.85197        -0.66538
C         41.48242        46.57141        -0.72209
C         42.69508        48.72104        -0.84219
C         41.43893        47.97956        -0.86270
C         42.68601        50.17514        -0.75878
C         41.36324        50.89242        -0.59351
C         42.66682        53.06270        -0.91699
C         41.42659        52.33013        -1.07788
C         42.72200        54.47042        -1.02131
C         41.56342        55.20602        -1.53197
C         42.71134        57.37292        -1.10125
C         41.50723        56.67372        -1.37074
C         42.68446        58.78718        -1.11237
C         41.50036        59.47075        -1.35128
C         45.19718        16.02280        -1.81709
C         43.92650        16.71251        -1.69209
C         45.20238        18.82979        -1.55010
C         43.92327        18.08369        -1.43676
C         45.24685        20.17556        -0.91426
C         43.94892        20.89276        -0.69821
C         45.31068        23.07465        -0.49088
C         43.99117        22.39162        -0.70610
C         45.33601        24.51452        -0.09105
C         43.99799        25.20652         0.06787
C         45.28689        27.27541         0.69481
C         44.01825        26.52271         0.77175
C         45.25252        28.68685         0.68150
C         43.99621        29.41624         0.66031
C         45.25020        31.48970         0.25235
C         44.02372        30.81282         0.40356
C         45.27656        32.91174        -0.12010
C         43.97293        33.73334        -0.02849
C         45.32854        35.80587         0.44260
C         44.00876        35.16201         0.16929
C         45.29811        37.31862         0.19398
C         43.96618        37.99385         0.18690
C         45.17016        40.20215        -0.50247
C         43.90913        39.45557        -0.10124
C         45.20248        41.64081        -0.23391
C         44.00826        42.34890        -0.10951
C         45.22256        44.50115        -0.25823
C         44.02043        43.79298        -0.21946
C         45.25860        45.90493        -0.60560
C         43.98073        46.55097        -1.13641
C         45.16316        48.79673        -1.01092
C         43.90066        48.04495        -0.90535
C         45.15998        50.24187        -0.67573
C         43.86054        50.90116        -0.63150
C         45.03521        53.06733        -0.25059
C         43.85991        52.35877        -0.56138
C         45.07421        54.48255        -0.27660
C         43.90042        55.19935        -0.67875
C         45.11816        57.30395        -0.44558
C         43.91859        56.62946        -0.76459
C         46.40598        16.64622        -1.82954
C         47.91078        18.81536        -1.73990
C         46.52076        18.11274        -1.82857
C         47.84724        20.24496        -1.13781
C         46.54187        20.94092        -0.92792
C         47.72857        22.83408         0.40021
C         46.48797        22.21914        -0.14258
C         47.73697        24.29845         0.77216
C         46.50966        25.10213         0.57251
C         47.74828        27.22148         0.80957
C         46.52101        26.51708         0.71962
C         47.73148        28.62619         0.40338
C         46.48559        29.40838         0.52342
C         47.76811        31.52417         0.13935
C         46.50768        30.79822         0.33447
C         47.78018        32.92167        -0.07084
C         46.54210        33.67536        -0.08092
C         47.74624        35.77190        -0.46473
C         46.51000        35.05011        -0.13390
C         47.75046        37.24928        -0.66874
C         46.50795        38.02515        -0.32843
C         47.76529        40.20929        -0.66218
C         46.46448        39.47353        -0.72105
C         47.78016        41.59489        -0.08888
C         46.46962        42.31040         0.06398
C         47.79434        44.52000        -0.07783
C         46.48983        43.83293         0.09320
C         47.73354        46.01641         0.02647
C         46.44489        46.58958        -0.57529
C         47.68590        48.77128        -0.53213
C         46.44537        48.03107        -0.90280
C         47.63016        50.23647        -0.33931
C         46.31065        50.92585        -0.38503
C         47.52883        53.05502         0.35593
C         46.20517        52.28152         0.29215
C         47.49536        54.52839         0.35470
C         46.28806        55.20765         0.04378
C         46.25710        56.62505        -0.05591
C         50.20410        18.68705        -0.84621
C         49.05318        18.03865        -1.13710
C         50.26712        20.13125        -0.63369
C         49.08706        20.82873        -0.54387
C         50.27872        22.94679         0.09725
C         49.05437        22.06629         0.35977
C         50.31269        24.38080         0.47636
C         49.04098        25.02640         0.94462
C         50.33709        27.25554         0.83484
C         49.02794        26.52517         0.99254
C         50.31243        28.68990         0.49701
C         49.04572        29.36053         0.19005
C         50.24446        31.51581         0.13903
C         49.02314        30.83532         0.19008
C         50.25318        32.92430        -0.03053
C         49.01820        33.63000        -0.17507
C         50.22995        35.73776        -0.48035
C         49.02347        35.04863        -0.31806
C         50.31127        37.21281        -0.20433
C         49.02887        37.98135        -0.32957
C         50.34614        40.23245        -0.48296
C         49.07418        39.46058        -0.61340
C         50.34523        41.71655        -0.38445
C         49.06444        42.38244        -0.06888
C         50.27222        44.56609        -0.25099
C         49.01225        43.86160        -0.11124
C         50.23482        45.99307        -0.44712
C         49.00858        46.65683        -0.47305
C         50.24477        48.85113        -0.98200
C         48.95219        48.05709        -0.87329
C         50.19636        50.35815        -0.87843
C         48.87602        51.03992        -0.57662
C         50.07790        53.27353        -0.17459
C         48.86733        52.40893         0.03210
C         49.96414        54.63848         0.36861
C         48.74115        55.21489         0.56721
C         52.86392        20.11380        -0.37640
C         51.59645        20.89067        -0.62613
C         52.82288        22.88860         0.58651
C         51.56038        22.17015         0.20624
C         52.81025        24.38631         0.68403
C         51.62327        25.06788         0.69324
C         52.86421        27.29748         0.89953
C         51.62521        26.55217         0.40386
C         52.72407        28.71695         0.95255
C         51.51111        29.36937         0.53217
C         52.85925        31.56871         0.26098
C         51.54914        30.80008         0.15491
C         52.78243        33.06831         0.29902
C         51.48247        33.61231        -0.23888
C         53.22895        36.08104        -0.25233
C         51.37330        34.92716        -0.65712
C         52.95355        37.38180         0.05338
C         51.61304        38.01900        -0.00783
C         52.82596        40.33240        -0.05134
C         51.57782        39.53143        -0.00435
C         52.79452        41.68501        -0.24618
C         51.52922        42.41423        -0.33442
C         52.74124        44.60192        -0.32880
C         51.52411        43.88029        -0.29893
C         52.74538        46.03088        -0.31040
C         51.48468        46.74390        -0.51412
C         52.68949        48.92887        -0.42337
C         51.47063        48.12778        -0.63461
C         52.53928        50.36079        -0.05362
C         51.42703        51.05936        -0.42071
C         52.71623        53.19287        -0.09392
C         51.41227        52.54949        -0.36819
C         54.01627        20.74407        -0.09403
C         55.28290        23.05123        -0.14662
C         54.11525        22.18209         0.27223
C         55.19613        24.52299         0.02620
C         54.06820        25.14697         0.60244
C         55.42960        27.16945         1.10567
C         54.07696        26.55907         0.93344
C         55.63295        28.59033         1.49757
C         53.75917        29.61938         1.39668
C         55.28646        31.60641         1.30722
C         53.99139        30.90061         0.95959
C         55.31731        33.11770         1.10508
C         54.05524        33.84515         0.64279
C         55.41079        35.96600         0.74729
C         54.27586        35.29068         0.33082
C         55.38511        37.44875         0.77092
C         54.08663        38.17968         0.55571
C         55.40358        40.27013        -0.16241
C         54.10226        39.57536         0.01123
C         55.36380        41.76405        -0.00614
C         54.05046        42.46707        -0.09422
C         55.30561        44.64012        -0.11358
C         54.06333        43.89688        -0.59114
C         55.20971        46.03188         0.13132
C         53.95140        46.72337        -0.08083
C         55.01971        48.91853         0.63659
C         53.96603        48.20023        -0.11300
C         54.91852        50.26187         0.92467
C         53.61776        51.04218         0.76879
C         53.77361        52.48623         0.33684
C         57.24496        23.36998        -1.61127
C         56.31572        22.54387        -1.06566
C         57.33957        24.76338        -1.22476
C         56.33468        25.27979        -0.39287
C         57.61962        27.44976        -0.23617
C         56.55096        26.57140         0.26370
C         57.80740        28.74125         0.47053
C         56.63616        29.42336         1.07352
C         57.79515        31.63581         1.10228
C         56.61071        30.89019         1.19867
C         57.81294        33.09245         1.11081
C         56.62770        33.82155         0.99693
C         57.84569        36.01808         0.98788
C         56.64649        35.26753         0.96098
C         57.83619        37.46354         0.80292
C         56.65819        38.15217         0.60518
C         57.76382        40.38947         0.74579
C         56.74053        39.53976        -0.00783
C         57.90108        41.77112         0.11099
C         56.63948        42.52166        -0.22354
C         57.74895        44.72355         0.26176
C         56.56440        44.00162        -0.04593
C         57.64175        46.10800         0.55189
C         56.37504        46.74246         0.53336
C         57.34174        48.87148         1.68608
C         56.18402        48.12346         1.06614
C         57.22924        50.33331         1.76417
C         56.04930        50.95426         1.50329
C         59.50386        25.11415        -2.40136
C         58.46829        25.59882        -1.61483
C         59.65570        27.86667        -1.60284
C         58.54195        26.97964        -1.13524
C         59.92893        29.17634        -0.87614
C         59.04416        29.52436         0.28656
C         60.39834        31.64519         0.69088
C         59.09669        30.91873         0.87441
C         60.43994        33.13412         0.94223
C         59.08768        33.86170         1.20470
C         60.30556        36.04249         0.89134
C         59.09464        35.33143         1.02454
C         60.31264        37.50658         0.90158
C         59.08877        38.21567         0.82046
C         60.26331        40.37817         0.94396
C         59.07642        39.63479         0.81972
C         60.22273        41.85788         0.90084
C         59.10910        42.53747         0.46182
C         60.31610        44.76151         0.65253
C         59.11002        44.01468         0.06124
C         60.18606        46.21978         1.06449
C         58.85941        46.91493         0.89200
C         59.74278        48.72006         2.49519
C         58.70662        48.26210         1.56294
C         60.61934        25.92789        -2.77474
C         60.71219        27.23569        -2.41045
C         61.23013        29.89352        -0.90043
C         61.43296        31.01313        -0.18157
C         61.53247        33.96133         0.44296
C         61.50086        35.32349         0.55622
C         61.50161        38.26630         1.00482
C         61.47814        39.65591         1.03377
C         61.40247        42.61722         1.28552
C         61.43507        43.96291         1.20253
C         61.17102        46.82543         1.96511
C         60.92241        48.00639         2.65567
O         34.59195        37.91856        -1.27568
O         47.24112        21.13002        -2.17943
O         36.97929        21.15922         1.30115
O         54.72711        39.71158        -1.33989
O         38.43946        45.73960        -2.23920
O         26.12645        47.47555         2.23184
O         36.97190        33.29354        -1.37161
O         35.50100        18.78954        -2.29900
O         44.65078        20.23031         0.41910
O         46.23856        37.98867         1.12269
O         32.76009        23.42698         2.25006
O         24.67652        31.15014        -1.28692
O         55.16968        32.51840         2.43679
O         23.03867        37.75828         1.46584
O         38.96211        30.33488         2.06525
O         34.76180        22.08747         1.95014
O         36.37815        51.58269        -3.12879
O         40.21889        41.18471         1.96451
O         48.34857        28.76992        -0.96241
O         46.76119        22.12357         1.27294
O         43.31773        26.62810         2.04717
O         60.10481        30.93448         1.93648
O         48.39562        24.43158         2.10686
O         25.94037        29.14494         1.55495
O         44.53801        33.22349        -1.33555
O         48.53704        41.69886         1.14918
O         31.40197        46.60037         2.38081
O         32.14523        49.27917        -1.50754
O         52.42891        31.03075        -1.02379
O         27.95874        24.78531         2.02419
O         28.81151        43.06611         2.62533
O         49.55313        48.34870        -2.16904
O         40.74592        23.13400        -1.86423
O         37.76168        36.73643        -1.38521
O         30.45784        40.74388         2.49265
O         44.80668        22.87771        -1.83695
O         28.73393        26.66718        -0.88049
O         51.46549        38.80611         1.24540
O         27.70913        50.03561         2.48549
O         25.23614        40.93134         2.14512
O         59.98615        33.45637         2.27987
O         30.73587        24.73513         2.36295
O         45.93804        48.40296        -2.23116
O         47.09827        39.95558        -1.93798
O         54.56476        38.00433         1.91293
O         52.03672        22.13102         1.57229
O         34.42762        43.26002         2.14912
O         60.78027        45.81833        -0.24389
O         52.98561        33.63499         1.63530
O         47.68789        36.43465        -1.85016
O         49.45999        37.52289         0.97311
O         59.05820        48.15201         0.12776
O         27.91770        36.49110         2.02476
O         57.46374        41.95751        -1.27378
O         46.39883        43.04881         1.33063
O         48.39945        52.46698         1.40424
O         41.66492        38.69867         2.04695
O         49.89207        39.74495        -1.80078
O         44.20044        39.78462        -1.51711
O         56.40358        48.15094         2.54004
O         45.74788        18.76589        -2.90142
O         50.17773        23.94005        -0.95909
O         54.68090        42.23146         1.20617
O         23.00889        44.69264         1.16506
O         55.21301        22.40304         1.19698
O         44.76639        25.34641        -1.16559
O         30.82629        31.16542        -1.04023
O         53.72041        48.74850        -1.47324
O         39.56108        27.17663        -0.92280
O         58.98592        28.55672         1.37879
O         39.90179        33.24087        -1.37852
O         41.13240        54.77415        -2.87150
O         56.47011        26.35716         1.72764
O         30.12541        27.57257         2.47397
O         54.65052        29.09530         2.34177
O         34.15229        50.47540        -2.57201
O         36.09105        46.81589        -2.44441
O         33.43515        33.34880        -1.26527
O         47.71715        49.32323         0.82639
O         52.48643        35.48012        -1.25977
O         28.41178        31.26779         1.84188
O         49.40269        50.99009        -1.92608
O         30.14413        48.75646         2.32311
O         36.43308        29.84811        -0.52954
O         23.43865        25.88366        -0.83738
O         59.20139        29.17459        -2.14888
O         33.96907        52.74717         0.49458
O         37.91773        49.19594        -2.98473
O         49.82477        26.99416         2.17441
O         50.69731        53.17282        -1.48601
O         42.85576        35.69202         2.26140
H         43.80406        35.77637         2.53228
O         32.49828        28.82003         2.68757
H         31.61817        28.34083         2.86121
O         42.58390        31.30691        -1.41146
H         43.25790        31.88455        -1.84582
O         59.30352        44.00525        -1.37585
H         59.77244        44.84126        -1.60476
O         51.70091        21.37732        -2.00573
H         51.41661        20.66001        -2.61141
O         57.27775        39.32931        -1.33259
H         56.51815        39.27484        -1.95584
O         54.17083        43.78335        -2.04354
H         54.19180        44.68741        -2.42282
O         35.51457        24.48606         2.60464
H         34.88358        23.84210         3.00948
O         40.29796        23.83466         1.67664
H         40.31524        24.58973         2.30229
O         51.66968        26.64725        -1.05444
H         51.12782        25.92011        -1.43431
O         36.74515        35.22653         1.76630
H         35.95467        34.82657         2.18743
O         23.20769        42.38204         1.95573
H         23.57788        41.61208         2.45307
O         35.26870        28.76756         2.80414
H         34.34396        28.60579         3.12327
O         32.73373        20.43174        -1.98501
H         33.50583        19.94974        -2.35695
O         53.05594        51.07941         2.12823
H         53.78176        51.30174         2.74948
O         45.55466        35.66368         1.90763
H         46.12670        36.42512         2.17481
O         47.65409        46.33262         1.46207
H         47.14511        45.61862         1.90355
O         49.25327        21.52475         1.68895
H         48.87544        22.15595         2.34088
O         27.76719        28.96614        -1.61934
H         28.39542        28.30556        -1.99320
O         57.28867        40.62993         2.09013
H         57.16616        39.76695         2.54022
O         23.41500        27.34145         2.48283
H         22.88514        27.92862         3.06115
O         48.32796        18.98603        -3.11738
H         47.62666        19.52811        -3.54883
O         44.01577        46.38003        -2.59149
H         44.72398        46.98278        -2.92581
O         28.86525        35.43346        -1.34920
H         29.61873        34.99343        -1.79863
O         28.24372        41.92459        -0.76827
H         27.55874        41.47835        -1.30965
O         37.13177        23.23696        -1.63465
H         37.83807        23.66990        -2.16206
O         25.23683        46.73732        -1.78297
H         24.68500        47.23831        -2.42283
O         45.84899        51.98796         1.67585
H         46.67203        51.67255         2.11606
O         38.68899        56.72761         0.03566
H         37.78549        56.37060         0.17910
O         41.14334        50.97223         0.86354
H         41.92707        51.41364         1.25671
H         22.86556        23.48792         1.46859
H         20.67299        24.69948         1.55876
H         20.60856        27.15251         1.31777
H         20.70126        29.24187         1.42705
H         20.77801        31.66255         1.00714
H         20.73438        33.31397        -0.44358
H         20.75751        35.77109        -0.50342
H         20.99225        37.71216        -1.16792
H         21.12421        40.11794        -1.28414
H         21.38117        41.96002        -1.61893
H         21.29989        44.36386        -1.67865
H         21.23802        46.41596        -1.51614
H         23.35321        50.09023        -0.87634
H         21.48206        48.86327        -1.84555
H         24.29856        22.42096         0.21033
H         24.98227        50.97260        -0.42316
H         26.41413        21.19592         0.07912
H         26.99737        52.10625         0.09724
H         30.25323        19.31636        -0.88576
H         28.10786        20.42950        -0.50384
H         30.48541        54.30414         0.19777
H         28.47420        53.10671         0.90916
H         31.83549        18.20134        -0.01408
H         32.04936        55.23195        -0.70709
H         33.92429        16.95480        -0.42499
H         34.10138        56.31231        -1.45691
H         37.66361        14.95323        -1.75554
H         35.54271        16.10791        -1.54247
H         37.81509        58.30655        -2.44367
H         35.70336        57.04737        -2.51959
H         39.26531        14.05855        -2.06857
H         39.36196        59.33218        -1.61858
H         43.54839        14.03511        -2.13683
H         41.39338        12.85830        -2.31487
H         43.59837        59.36505        -0.92436
H         41.49545        60.56934        -1.35760
H         45.19272        14.92483        -1.85369
H         45.16515        58.39888        -0.50333
H         47.32244        16.03880        -1.83422
H         47.15865        57.20723         0.17427
H         51.09450        18.09859        -0.57748
H         49.03841        16.93980        -1.16643
H         50.87726        55.23750         0.49161
H         48.71510        56.27514         0.85756
H         52.87995        19.03163        -0.57284
H         52.82352        54.25388        -0.36308
H         54.94334        20.15981         0.00636
H         54.74273        52.99133         0.45768
H         57.98706        22.94928        -2.30321
H         56.31762        21.47250        -1.31080
H         58.11718        50.92274         2.03444
H         55.98732        52.04366         1.63804
H         59.49126        24.07652        -2.75925
H         59.54398        49.60539         3.11417
H         61.40890        25.47555        -3.39105
H         61.55437        27.85158        -2.75401
H         62.03765        29.50683        -1.53958
H         62.41925        31.49853        -0.23414
H         62.40337        33.48045        -0.02370
H         62.38304        35.89598         0.23709
H         62.47161        37.75610         1.08480
H         62.43440        40.19156         1.10815
H         62.27907        42.08461         1.67785
H         62.34813        44.49879         1.49423
H         62.15653        46.35290         2.06016
H         61.68904        48.38872         3.34454
