         429
 CSIRO Nanostructure Databank - Neutral Graphene Oxide Data Set
C          1.15847         3.56040        -1.71537
C         -0.03778         4.23117        -1.54346
C          1.13691         6.34569        -1.15786
C         -0.05237         5.61097        -1.27402
C          1.13712         7.77886        -0.91219
C         -0.06410         8.50055        -0.75528
C          1.13980        10.60465        -0.47760
C         -0.06436         9.87080        -0.54309
C          1.15111        12.03928        -0.28522
C         -0.04544        12.77307        -0.14979
C          1.16431        14.88353         0.06521
C         -0.03809        14.14976         0.02224
C          1.14965        16.32929         0.24686
C         -0.05755        17.05088         0.41599
C          1.14542        19.17489         0.52257
C         -0.06032        18.42775         0.53433
C          1.12601        20.61532         0.66384
C         -0.02676        21.39960         0.53020
C          1.19620        23.49753         0.99015
C         -0.00821        22.78087         0.73333
C          1.23870        24.92480         1.11944
C          0.02856        25.70919         1.25099
C          1.31414        27.83748         1.59346
C          0.04385        27.03988         1.48446
C          1.24088        29.19368         0.91475
C         -0.00911        29.87535         0.72550
C          1.14704        31.87652        -0.24411
C         -0.07014        31.14375         0.24100
C          1.15703        33.36802         0.04982
C         -0.01507        34.08886         0.33109
C          1.18550        36.20732         0.25153
C         -0.00151        35.47817         0.45552
C          1.21969        37.63974         0.29203
C          3.61755         3.58897        -1.80351
C          2.39399         4.25843        -1.60531
C          3.61745         6.36270        -1.17036
C          2.38926         5.66437        -1.30658
C          3.61689         7.78531        -0.93305
C          2.37332         8.48882        -0.83518
C          3.61191        10.61649        -0.57190
C          2.37269         9.90274        -0.62007
C          3.62768        12.04009        -0.36889
C          2.39440        12.74421        -0.23470
C          3.64119        14.86542        -0.05400
C          2.39700        14.16861        -0.06711
C          3.62745        16.33705        -0.04100
C          2.36314        17.06516         0.22817
C          3.68666        19.22108         0.28861
C          2.37109        18.46329         0.38275
C          3.66049        20.54483         1.01812
C          2.36232        21.29747         1.07725
C          3.65997        23.42498         1.15879
C          2.41486        22.76608         1.09157
C          3.70422        24.85465         1.14214
C          2.48861        25.59208         1.15397
C          3.72060        27.70107         0.93301
C          2.53696        27.04180         1.17494
C          3.75009        29.21647         1.00557
C          2.43199        29.86369         0.62775
C          3.65314        31.92403        -0.03229
C          2.43669        31.20247         0.16716
C          3.61781        33.33908        -0.25192
C          2.37781        34.06124        -0.10114
C          3.56546        36.21552        -0.36060
C          2.39090        35.49581        -0.04548
C          3.59028        37.63670        -0.30873
C          2.37568        38.32604         0.02954
C          6.08144         3.60020        -1.89093
C          4.84018         4.27148        -1.68872
C          6.10063         6.32567        -1.18874
C          4.85380         5.66310        -1.34234
C          6.12146         7.72455        -0.63511
C          4.83609         8.49763        -0.83903
C          6.08765        10.66235        -0.80482
C          4.82682         9.89607        -0.71102
C          6.10455        12.06504        -0.36295
C          4.87135        12.74974        -0.24753
C          6.13442        14.86949         0.08536
C          4.86774        14.17695        -0.07425
C          6.16815        16.26792         0.32183
C          4.93203        17.04607         0.18004
C          6.17629        19.14740         0.80070
C          4.85941        18.39299         0.85812
C          6.17791        20.55177         1.01727
C          4.93450        21.29613         1.06850
C          6.13953        23.41072         1.49815
C          4.89666        22.67549         1.18834
C          6.17687        24.86555         1.25680
C          4.96843        25.54843         1.09496
C          6.18084        27.62315         0.58775
C          4.97108        26.97323         0.84002
C          6.13050        28.99848         0.03881
C          4.87412        29.78719         0.16875
C          6.10387        31.92379        -0.37861
C          4.90870        31.25530        -0.04101
C          6.04615        33.32907        -0.64973
C          4.82311        34.02053        -0.53986
C          6.04408        36.25934        -0.98700
C          4.75232        35.47504        -0.81137
C          6.03328        37.70884        -0.70517
C          4.80022        38.35337        -0.48718
C          8.55685         3.49503        -2.02417
C          7.28486         4.26049        -1.75714
C          8.58790         6.34845        -1.29087
C          7.31222         5.64582        -1.39204
C          8.58805         7.78829        -1.09460
C          7.39465         8.46027        -0.96604
C          8.64721        10.61953        -0.58212
C          7.39431         9.93246        -0.95929
C          8.58249        11.99607        -0.25280
C          7.35576        12.72460        -0.18922
C          8.59497        14.84204         0.28448
C          7.35275        14.14112         0.06878
C          8.60092        16.27672         0.47364
C          7.38248        16.98304         0.51465
C          8.63130        19.15068         0.64460
C          7.38288        18.43527         0.66800
C          8.63270        20.56028         0.90622
C          7.42273        21.22565         1.17334
C          8.76262        23.38600         1.74130
C          7.43050        22.63947         1.60646
C          8.64979        24.86602         1.36103
C          7.45031        25.54417         1.18371
C          8.63199        27.69241         0.73785
C          7.44674        26.96877         0.81365
C          8.68521        29.04116         0.12581
C          7.39918        29.73508        -0.24605
C          8.59208        31.89678        -0.39112
C          7.38392        31.21766        -0.35398
C          8.62624        33.31834        -0.79989
C          7.27712        34.06038        -1.01309
C          8.51102        36.22351        -0.82662
C          7.31754        35.52820        -0.91282
C          8.50226        37.68234        -0.75778
C          7.26452        38.37796        -0.67118
C         10.96013         3.55377        -1.41717
C          9.80751         4.24774        -1.65102
C         11.07487         6.41106        -1.58241
C          9.78773         5.67972        -1.47721
C         11.07708         7.84079        -1.21110
C          9.86399         8.50352        -1.00433
C         11.10761        10.40078         0.03620
C          9.84902         9.88941        -0.62272
C         11.04700        11.89385         0.38357
C          9.89414        12.72170        -0.19092
C         11.03314        14.86281         0.59269
C          9.79519        14.13131         0.31735
C         11.05218        16.30547         0.35845
C          9.85049        17.00637         0.42404
C         11.11755        19.13899         0.32336
C          9.85281        18.44603         0.43677
C         11.08106        20.65461         0.18765
C          9.86748        21.33306         0.80085
C         11.10909        23.50299         0.57832
C          9.91094        22.68025         1.03142
C         11.21535        24.87482         1.23134
C          9.91982        25.62337         1.45849
C         11.17839        27.87383         1.02873
C          9.89114        27.11523         1.26223
C         11.14799        29.23084         0.42481
C          9.91680        29.85882         0.19537
C         11.07088        31.98676        -0.11611
C          9.86666        31.24271        -0.12674
C         11.02969        33.48453         0.03816
C          9.80148        34.13395        -0.53337
C         10.99858        36.27453        -0.61824
C          9.77378        35.52126        -0.67633
C         10.97092        37.70243        -0.71732
C          9.71393        38.37830        -0.72560
C         13.03846         3.47318        -0.22781
C         12.22060         4.18452        -1.08558
C         13.65839         6.38027        -1.28005
C         12.40716         5.60024        -1.54683
C         13.67280         7.86549        -1.37692
C         12.35577         8.60136        -1.22380
C         13.60744        10.58933        -0.36008
C         12.40511         9.95895        -0.63336
C         13.59116        12.01188         0.08825
C         12.32785        12.62636         0.61142
C         13.60044        14.88518         0.66356
C         12.32027        14.13272         0.75659
C         13.59507        16.23810         0.47570
C         12.34224        16.95947        -0.02322
C         13.62003        19.15191        -0.06901
C         12.30884        18.45136         0.20495
C         13.64958        20.55288         0.50792
C         12.36129        21.30558         0.67308
C         13.63555        23.43614         0.50481
C         12.42732        22.76863         0.64706
C         13.68111        24.88410         0.50040
C         12.50091        25.62402         1.00488
C         13.61363        27.82036         0.29635
C         12.48296        27.13880         0.95320
C         13.61589        29.20764         0.12900
C         12.35978        29.92683         0.19447
C         13.56462        32.06010        -0.18535
C         12.32208        31.32847        -0.03666
C         13.52352        33.48200        -0.39682
C         12.29500        34.18188        -0.38610
C         13.46780        36.32291        -0.72494
C         12.25392        35.58906        -0.57351
C         13.43336        37.75567        -0.83146
C         12.18064        38.42038        -0.79323
C         15.29966         3.72967         0.98546
C         14.43374         3.80041        -0.05154
C         16.02067         6.37141        -0.43121
C         14.84242         5.75287        -1.01332
C         16.16039         7.80540        -0.60525
C         15.02659         8.61053        -1.22910
C         16.10107        10.65084        -0.24195
C         14.91378         9.99160        -0.57528
C         16.14445        12.02269         0.19275
C         14.86824        12.76954         0.25914
C         16.10966        14.81783         1.10684
C         14.79959        14.04208         1.09299
C         16.07647        16.31844         0.98270
C         14.81981        17.02566         0.59827
C         16.13201        19.16194         0.58261
C         14.83822        18.37586         0.40944
C         16.07294        20.54941        -0.03030
C         14.86374        21.33210         0.24991
C         16.11876        23.44264         0.01925
C         14.87716        22.71285         0.25666
C         16.10641        24.87562         0.01273
C         14.84790        25.56915         0.21104
C         16.09554        27.80589        -0.19613
C         14.78871        27.02925        -0.03410
C         16.08376        29.27053        -0.07553
C         14.84521        29.93880        -0.07063
C         16.03409        32.10867        -0.28448
C         14.80373        31.37811        -0.16734
C         15.97500        33.50721        -0.50522
C         14.74489        34.19522        -0.60632
C         15.90244        36.36978        -0.97018
C         14.71661        35.63667        -0.77218
C         15.88673        37.79734        -1.03681
C         14.64398        38.47130        -0.95817
C         17.56518         3.83507         1.97871
C         16.74441         4.16613         0.75822
C         18.23917         6.23541         0.57453
C         16.90699         5.64286         0.35020
C         18.52821         7.65482         0.05095
C         17.33689         8.44597        -0.31293
C         18.59885        10.56432         0.26215
C         17.43410         9.94920        -0.48779
C         18.60110        11.97001         0.45519
C         17.34589        12.69655         0.47333
C         18.59416        14.80078         0.78184
C         17.38180        14.10366         0.81841
C         18.66205        16.28076         0.78869
C         17.37268        17.04603         0.77172
C         18.63653        19.09940         0.10870
C         17.32117        18.35384         0.01277
C         18.64601        20.61143         0.24659
C         17.36222        21.28707        -0.19821
C         18.58786        23.46598        -0.18421
C         17.34083        22.76427        -0.12987
C         18.57743        24.89951        -0.13995
C         17.32890        25.57946        -0.06450
C         18.63122        27.83707         0.01765
C         17.33208        27.04953         0.10854
C         18.55614        29.28279        -0.27912
C         17.32675        29.97731        -0.17849
C         18.51656        32.10482        -0.50455
C         17.30266        31.41773        -0.28952
C         18.54523        33.57473        -0.51489
C         17.21525        34.29877        -0.53484
C         18.43770        36.42060        -1.09072
C         17.17384        35.62217        -1.26486
C         18.37268        37.84251        -1.12310
C         17.11310        38.50735        -1.14518
C         18.66262         4.55049         2.35756
C         20.15997         6.50647         2.16139
C         19.08207         5.72218         1.66568
C         20.47671         7.74093         1.66944
C         19.85368         8.33506         0.42260
C         20.96126        10.52531         0.83964
C         19.76833         9.84244         0.52232
C         21.00867        11.90929         0.84132
C         19.82551        12.65218         0.66203
C         20.99487        14.80428         0.25097
C         19.83761        14.10431         0.58261
C         21.00072        16.20825         0.04143
C         19.87047        16.96349         0.26797
C         21.07676        19.19852         0.18414
C         19.82991        18.42293         0.16970
C         21.10390        20.52009        -0.07585
C         19.83566        21.24651        -0.47828
C         21.01232        23.49257        -0.34924
C         19.82943        22.75943        -0.28892
C         21.01125        24.89223        -0.31894
C         19.81921        25.62698        -0.23488
C         20.95103        27.80089        -0.74839
C         19.84427        27.07701        -0.30912
C         20.92428        29.20042        -0.86548
C         19.75637        29.95634        -0.65027
C         20.85511        32.13689        -1.21253
C         19.73138        31.40632        -0.79330
C         20.84305        33.54201        -1.35322
C         19.73018        34.29166        -1.01362
C         20.86864        36.52366        -1.06113
C         19.68339        35.75380        -1.06382
C         20.81030        37.92070        -1.09241
C         19.58722        38.58052        -1.12123
O          8.03444        33.51901        -2.12985
O         17.97327        34.23974         0.69373
O          5.14283        29.06615        -1.07213
O         16.67854        20.69829        -1.35829
O          2.95049        20.59150         2.28629
O          4.37992        16.95411        -1.18038
O         11.78232         5.97434        -2.79765
O         18.16816        17.03903         1.98087
O         16.09019        15.67998         2.30128
O         11.61128        14.53794         1.97976
O         18.83517         6.48844        -0.76416
O          8.18287        29.05470        -1.27792
O         10.73106        25.09439         2.56269
O         13.01829        20.67593         1.81747
O         11.56622        12.06272         1.73066
O         14.13144        12.87791        -0.99720
O         12.87409        26.44154         2.17032
O         15.37060        27.33446        -1.36516
O         14.94887         4.37738        -1.24575
O          6.72755        10.50804        -2.14865
O         18.00724        27.48685         1.31982
O          6.63900        22.92647         2.81586
O         10.51930        27.88302         2.34355
O          5.22508        35.86950        -2.14553
O         12.99565         8.42432        -2.55180
O         10.94275        33.70010         1.50718
H         11.75302        33.31573         1.90611
O         17.76455        10.18221        -1.88917
H         17.04090         9.76406        -2.42435
O          9.11222        23.31007         3.14521
H          8.27375        23.41150         3.65246
O         12.44885        16.81861        -1.51444
H         11.58270        17.08282        -1.89379
O         15.47979         8.85297        -2.59816
H         14.67070         9.06384        -3.12457
O         17.05462        18.02595        -1.36571
H         16.97533        18.88407        -1.85191
O          1.52264        28.14915         3.02646
H          1.51605        27.29679         3.51286
O          4.01443        29.56984         2.39230
H          3.24427        29.23847         2.91591
O          8.62226         3.15114        -3.42364
H          8.77968         3.97357        -3.93188
O         16.37926        19.38712         1.99547
H         16.46628        18.51886         2.44840
O         11.14121         9.64874         1.29673
H         11.45879        10.28607         1.98562
O         19.63188        21.01093        -1.89746
H         20.37100        21.42659        -2.38754
O         17.30146         3.37880        -0.33093
H         16.75155         3.57148        -1.12527
O         13.75699        19.28550        -1.50992
H         13.58407        18.39045        -1.89130
O         10.33448        12.87274        -1.60247
H          9.55376        13.13538        -2.13597
O          3.94703        19.55971        -1.09036
H          4.04054        18.70511        -1.58164
O         18.79041        20.89597         1.65918
H         18.05093        20.43658         2.12802
O         11.02991        20.95689        -1.24976
H         10.25725        20.48593        -1.62789
O          1.10598        31.79509        -1.72216
H          1.24032        30.85494        -1.96767
O         10.86695        23.78918        -0.84025
H         10.92811        22.92193        -1.31481
O          6.18293         7.56364         0.84010
H          6.93922         6.97082         1.03971
O         17.10450        35.24823        -2.69057
H         17.01479        36.07604        -3.20888
O         14.55014        13.59199         2.44269
H         14.71739        14.35928         3.03612
O          4.57181        18.10366         2.24800
H          4.33002        18.94197         2.70089
O         20.81919         8.05833        -0.62920
H         20.56178         7.18862        -1.01837
H          1.16951         2.48438        -1.93991
H         -0.99036         3.68975        -1.62722
H         -1.02556         6.10671        -1.16124
H         -1.03048         7.98150        -0.80066
H         -1.03087        10.37935        -0.43236
H         -1.01536        12.26008        -0.17916
H         -1.00326        14.66296         0.12050
H         -1.01956        16.52339         0.45047
H         -1.01934        18.94676         0.66718
H         -0.98035        20.92794         0.25379
H         -0.95206        23.33092         0.62291
H         -0.94054        25.19116         1.22080
H         -0.90950        27.55446         1.66924
H         -0.94485        29.37257         1.00655
H         -1.05469        31.60785         0.08796
H         -0.96938        33.56063         0.46093
H         -0.93377        36.01501         0.68303
H          0.29410        38.18370         0.53065
H          3.61548         2.51775        -2.05321
H          2.38835        39.42504         0.06787
H          6.07327         2.53519        -2.16506
H          4.78967        39.44574        -0.35377
H          8.52608         2.52153        -1.46763
H          7.28084        39.46953        -0.53163
H         10.92940         2.45367        -1.41555
H          9.70326        39.47837        -0.71162
H         12.64894         2.54196         0.21273
H         12.15312        39.51801        -0.86182
H         14.99501         3.31054         1.95439
H         14.62091        39.56998        -1.00680
H         17.29058         2.92945         2.53945
H         17.09204        39.60619        -1.18320
H         19.24617         4.23303         3.23544
H         20.72377         6.10994         3.02016
H         21.32848         8.27920         2.10964
H         21.88413         9.95225         1.00010
H         21.96460        12.42182         1.01424
H         21.92920        14.25311         0.07802
H         21.92744        16.68223        -0.31065
H         22.01194        18.67108         0.42376
H         22.06882        21.04856        -0.07784
H         21.97981        22.97766        -0.42996
H         21.97629        25.41463        -0.36295
H         21.88240        27.28068        -1.01156
H         21.85052        29.70351        -1.17296
H         21.78384        31.60939        -1.46764
H         21.74949        34.03726        -1.72932
H         21.84629        36.02425        -1.01647
H         21.74360        38.50106        -1.08693
H         19.54947        39.67903        -1.14101
