         314
 CSIRO Nanostructure Databank - Neutral Graphene Oxide Data Set
C         30.56344        57.13366         0.93071
C         30.49737        58.51184         1.10118
C         29.34856        59.24137         0.71036
C         30.53209        61.35604         0.91737
C         29.35066        60.63639         0.69038
C         32.93776        52.83450         0.90900
C         32.94633        54.22878         1.12416
C         31.73980        54.99293         0.98869
C         32.91635        56.98582         1.90003
C         31.71613        56.35969         1.21842
C         32.93262        58.51898         1.89242
C         31.59634        59.27416         1.81304
C         32.95129        61.36312         1.23236
C         31.72395        60.69583         1.27967
C         35.29042        48.54215         0.04850
C         35.30545        49.94068         0.26012
C         34.10284        50.68359         0.50938
C         35.42225        52.70022         1.04455
C         34.11382        52.04943         0.80431
C         35.44558        54.21234         1.26596
C         34.18015        54.95286         1.27301
C         35.43571        57.07294         1.28314
C         34.21498        56.35035         1.41342
C         35.46995        58.50091         1.34884
C         34.22115        59.24743         1.65924
C         35.40517        61.36686         1.18031
C         34.19435        60.69987         1.34851
C         37.78806        44.28178        -0.46868
C         37.68023        45.68003        -0.66267
C         36.51637        46.39948        -0.36034
C         37.64913        48.58958        -0.57114
C         36.46283        47.83335        -0.30760
C         37.69688        49.96111        -0.30328
C         36.55306        50.64248         0.16788
C         37.84450        52.72696         0.54327
C         36.64815        52.04002         0.54300
C         37.91478        54.16426         0.88840
C         36.67845        54.94865         1.01122
C         37.86432        57.08024         0.69453
C         36.67070        56.35626         0.97936
C         37.93208        58.54009         0.93450
C         36.65125        59.23542         1.16349
C         37.84464        61.40177         0.92372
C         36.64460        60.67138         1.12170
C         40.28657        40.13348        -0.01622
C         40.27233        41.48551        -0.32907
C         39.04079        42.20096        -0.33949
C         40.18682        44.18031        -1.34862
C         38.98045        43.55398        -0.66875
C         40.19568        45.68863        -1.18243
C         38.87991        46.38977        -1.16396
C         40.13133        48.60568        -1.05113
C         38.84851        47.90569        -1.09304
C         40.17850        49.97713        -0.81084
C         38.88865        50.79687        -0.73240
C         40.24382        52.85691        -0.27890
C         39.12766        51.98832         0.26592
C         40.30591        54.22255        -0.09158
C         39.18887        54.93484         0.58944
C         40.20631        57.10656        -0.01526
C         39.08419        56.40471         0.39822
C         40.11756        58.56049        -0.40560
C         39.16584        59.33657         0.53802
C         40.21394        61.70529         0.52886
C         39.08420        60.84195         0.57160
C         42.58475        35.94225         1.20217
C         42.62664        37.29197         0.77994
C         41.45131        38.01385         0.46312
C         42.75366        40.04574         0.02641
C         41.50231        39.38477         0.13925
C         42.80891        41.55566        -0.07510
C         41.52486        42.21560        -0.55105
C         42.78127        44.28831        -1.18005
C         41.51279        43.50892        -0.99065
C         42.61770        45.71066        -1.62505
C         41.34963        46.38927        -1.38383
C         42.62918        48.47839        -1.05324
C         41.33094        47.89807        -1.62156
C         42.65810        50.00004        -0.96424
C         41.37373        50.70207        -0.90590
C         42.65586        52.97364        -1.23252
C         41.32368        52.17001        -0.98216
C         42.69249        54.36271        -0.76219
C         41.50854        54.96730        -0.33482
C         42.77442        57.16524        -0.16055
C         41.50275        56.40315         0.00030
C         42.69377        58.58589        -0.56219
C         41.46281        59.19632        -0.64001
C         42.71583        61.95858         0.23245
C         41.46288        61.42860        -0.07973
C         44.89645        33.26780         2.43970
C         43.72714        33.90912         2.03811
C         45.01923        35.93969         1.54400
C         43.76039        35.25813         1.58788
C         45.08327        37.28754         1.08113
C         43.89153        37.96491         0.69567
C         45.23618        39.93973         0.09863
C         43.95021        39.32366         0.26651
C         45.31026        41.25032        -0.59095
C         44.04700        42.04712        -0.83560
C         45.47452        44.03612        -1.55490
C         44.11938        43.54053        -1.10615
C         45.70188        45.29292        -2.08263
C         43.66588        46.47882        -2.09339
C         44.89410        48.62207        -2.14759
C         43.76694        47.90507        -1.87057
C         45.07878        50.05954        -1.87923
C         43.89408        50.77752        -1.32483
C         45.14196        52.89154        -1.20273
C         43.91025        52.24472        -1.36012
C         45.15165        54.32541        -1.04686
C         43.95477        55.05123        -0.79522
C         45.17250        57.21264        -0.72379
C         44.00719        56.46482        -0.56422
C         45.19300        58.67033        -0.69256
C         43.92780        59.26217        -0.87134
C         45.22525        61.62617         0.14540
C         43.94038        61.43392        -0.30581
C         46.12543        33.93148         2.41446
C         47.44564        35.97942         1.95283
C         46.21097        35.27448         1.96737
C         47.53017        37.29863         1.48606
C         46.33766        37.95774         1.01016
C         47.76259        39.84523         0.15757
C         46.40341        39.27188         0.46628
C         47.75736        41.33481        -0.04440
C         46.60915        41.94146        -0.56114
C         47.95731        44.08626        -0.86739
C         46.67327        43.27801        -1.15487
C         47.91055        45.52918        -1.01795
C         46.87813        46.10193        -1.79440
C         47.63152        48.37826        -1.14747
C         46.86313        47.52037        -1.96611
C         47.58718        49.88730        -1.08513
C         46.41710        50.71159        -1.60156
C         47.58520        52.86731        -1.08442
C         46.38893        52.16408        -1.20528
C         47.58984        54.29622        -1.05732
C         46.39393        55.01392        -1.06827
C         47.67700        57.27142        -1.05600
C         46.38273        56.49134        -1.12142
C         47.63272        58.66103        -0.53171
C         46.43973        59.42497        -0.52012
C         47.54641        61.74303        -0.39581
C         46.43715        60.90101        -0.27523
C         48.75101        38.03792         1.56291
C         50.00459        40.12243         1.29047
C         48.86262        39.33759         1.05615
C         50.06240        41.50006         0.93180
C         48.93632        42.07269         0.26771
C         50.04064        44.40589         0.62714
C         48.88226        43.53167         0.14517
C         50.08968        45.82711         0.22256
C         48.85831        46.34635        -0.35540
C         50.29692        48.79777         0.03365
C         48.52492        47.71074        -0.27530
C         50.20775        50.04172        -0.58437
C         48.87261        50.68272        -0.77929
C         50.18414        52.84720        -1.16077
C         48.87654        52.12553        -1.19174
C         50.16074        54.29291        -0.78423
C         48.85218        55.02327        -0.79719
C         50.13640        57.13658        -0.79403
C         48.91947        56.48498        -0.90321
C         50.11531        58.55820        -0.59761
C         48.92891        59.14019        -0.17054
C         50.10479        61.70556        -0.90445
C         48.93689        61.33183        -0.31439
C         51.20882        42.30104         1.22856
C         52.45595        44.45472         1.08612
C         51.26916        43.69109         1.01545
C         52.49098        45.83491         0.76826
C         51.28748        46.54798         0.37420
C         52.70656        48.59316        -0.15674
C         51.44757        47.96343         0.05658
C         52.68794        49.97859        -0.59592
C         51.45326        50.69647        -0.80475
C         52.64208        52.83425        -0.80383
C         51.45847        52.11768        -0.94560
C         52.64210        54.28693        -0.54069
C         51.41666        55.06322        -0.79791
C         52.65274        57.20615        -0.57252
C         51.40946        56.43575        -0.70862
C         52.63346        58.58793        -0.58050
C         51.35861        59.33810        -0.76983
C         52.62682        61.49535        -0.45495
C         51.35436        60.85492        -0.85889
C         53.70519        46.56053         0.82215
C         55.13592        48.50383         0.68157
C         53.88006        47.88738         0.36318
C         55.64132        49.68587         0.12345
C         53.86943        50.72903        -0.85276
C         55.11808        52.89061        -0.78528
C         53.88731        52.14204        -0.84266
C         55.20428        54.25224        -0.47339
C         53.93262        55.02122        -0.34953
C         55.13559        57.17405        -0.38471
C         53.92764        56.49632        -0.48945
C         55.14614        58.61329        -0.29657
C         53.92358        59.35978        -0.78822
C         54.95471        61.43411         0.24330
C         53.80556        60.79431        -0.30004
C         56.62497        50.54011         0.65733
C         57.60451        52.85445         0.75521
C         56.87344        51.84431         0.14381
C         57.56442        54.25944         0.41663
C         56.42313        54.92519        -0.14538
C         57.59799        57.19286         0.31712
C         56.40872        56.40987        -0.24495
C         57.41932        58.61265         0.66895
C         56.23436        59.30495         0.24637
C         57.21154        61.39219         1.16853
C         56.13773        60.73527         0.52436
C         58.63008        55.03259         0.96426
C         59.64944        57.13877         1.71007
C         58.65859        56.42953         1.00309
C         59.58492        58.54039         1.86588
C         58.43231        59.26784         1.37656
C         59.40403        61.34474         2.29559
C         58.34500        60.69085         1.61590
C         60.60096        59.24807         2.55200
C         60.50876        60.62717         2.75122
O         48.06377        39.24242        -1.22133
O         47.81178        43.34992        -2.10392
O         48.84459        44.17436         1.46254
O         43.63010        50.37124         0.09908
O         45.88816        50.64088        -2.95877
O         33.71683        58.99134         3.04525
O         49.17220        48.38236         0.75819
O         41.38110        60.48542        -1.14864
O         49.43877        54.51857         0.48530
O         42.31812        56.81043         1.19360
O         38.63629        47.18287        -2.38050
O         44.69502        45.89335        -2.82735
O         57.47635        56.91879        -1.11535
O         51.42895        60.04417        -2.10813
O         47.88369        50.41301         0.24946
O         39.05299        58.83715         1.89359
O         35.57108        53.24138         2.38898
O         41.68168        52.71577        -2.28695
O         45.94571        48.03677        -2.88035
O         43.82219        60.53696        -1.39664
O         55.05855        50.05950        -1.11101
O         43.62475        44.28243         0.07217
O         38.93113        54.45731         1.94128
O         49.06553        60.27309         0.61844
O         44.57669        41.23170        -1.89861
O         38.63093        51.25953        -2.00428
O         53.15513        54.57874         0.83423
O         49.56850        52.46404        -2.44647
O         46.99535        57.06200        -2.33922
O         56.28396        52.19044        -1.09955
O         41.33121        48.11767        -3.05242
H         40.42413        47.90944        -3.37500
O         42.73099        47.96664         0.29296
H         43.29696        48.59088         0.80300
O         49.28818        39.83836        -1.69570
H         48.96952        40.56237        -2.28963
O         43.00177        41.99358         1.30704
H         43.11745        42.97734         1.27802
O         31.12952        59.42254         3.18341
H         31.92860        59.61045         3.72680
O         32.79977        56.58381         3.29222
H         33.37791        57.19245         3.80685
O         39.46208        58.62166        -1.71924
H         39.69184        59.49166        -2.11592
O         40.00434        43.94733        -2.78278
H         39.22099        44.46296        -3.07107
O         54.07202        59.43312        -2.24594
H         53.20150        59.75468        -2.59507
O         39.57544        51.38815         1.50887
H         39.58436        52.09590         2.19064
H         29.69375        56.61668         0.49387
H         28.46306        58.69160         0.35829
H         30.55831        62.43690         0.71247
H         28.44376        61.17430         0.38030
H         31.96800        52.33983         0.74531
H         30.83177        54.48666         0.62679
H         32.95872        62.43462         0.97604
H         34.34541        47.99240         0.17194
H         33.13717        50.15882         0.44257
H         35.40195        62.45645         1.02677
H         36.91551        43.74194        -0.06723
H         35.62122        45.83759        -0.05182
H         37.77805        62.49947         0.97592
H         39.33068        39.61235         0.14308
H         38.13317        41.68734         0.01413
H         40.09731        62.68383         1.02158
H         41.61613        35.42283         1.25184
H         40.47406        37.51472         0.53921
H         42.78453        62.67883         1.05953
H         44.85166        32.22573         2.78635
H         42.76569        33.37698         2.07017
H         45.39000        62.43301         0.87655
H         47.03836        33.41329         2.74099
H         48.35371        35.47578         2.31652
H         47.34269        62.82666        -0.39876
H         49.60447        37.59174         2.09630
H         50.83897        39.68751         1.86216
H         50.13128        62.55115        -1.60736
H         52.10842        41.79028         1.60439
H         53.39748        43.95398         1.35786
H         52.59733        62.55701        -0.16337
H         54.58907        46.04215         1.22468
H         55.73249        48.01291         1.46613
H         54.88156        62.49439         0.53118
H         57.09538        50.26354         1.61153
H         58.25632        52.57749         1.59808
H         57.13687        62.47348         1.35885
H         59.44220        54.48904         1.47085
H         60.48145        56.58409         2.16938
H         59.34364        62.42966         2.46312
H         61.47506        58.69696         2.92768
H         61.31664        61.15264         3.27953
