         272
 CSIRO Nanostructure Databank - Neutral Graphene Oxide Data Set
C        -11.13708         0.65975        -1.15416
C         -9.84794         1.45248        -1.10289
C         -8.94581         0.78435        -0.02653
C         -7.57642         1.44635         0.01450
C         -6.48500         0.75889         0.80538
C         -5.16621         1.50215         0.81335
C         -3.88470         0.74283         0.90632
C         -2.63204         1.31862         0.25177
C         -1.40193         0.70759         0.92063
C         -0.09988         1.38981         0.84911
C          1.06740         0.67199         0.94962
C          2.27787         1.36039         0.43913
C          3.46303         0.56313         0.02256
C          4.66879         1.25648        -0.60908
C          5.95559         0.51344        -0.83250
C          7.17742         1.18863        -1.56766
C          8.60268         0.43789        -1.37904
C          9.81057         1.33585        -1.09192
C         11.07451         0.59942        -1.07977
C         -9.93442         2.94662        -0.82579
C         -8.84323         3.66423        -0.46238
C         -7.57074         2.93867        -0.14363
C         -6.42478         3.67665         0.55089
C         -5.14983         2.89215         0.22457
C         -3.85043         3.59060        -0.02075
C         -2.54854         2.84712         0.11231
C         -1.25605         3.60032         0.27273
C         -0.06918         2.88607         0.86436
C          1.24160         3.61644         1.00726
C          2.48147         2.80959         0.73282
C          3.69784         3.48855         0.19469
C          4.54098         2.77541        -0.88853
C          5.90958         3.49944        -1.14629
C          7.21294         2.73014        -1.36529
C          8.50931         3.45851        -1.09050
C          9.74856         2.67156        -0.89871
C         -8.83331         5.20277        -0.53500
C         -7.70453         5.91751         0.25732
C         -6.39125         5.13209         0.09704
C         -5.08284         5.83984        -0.00801
C         -3.82761         5.06691         0.28509
C         -2.54754         5.80166         0.50968
C         -1.21658         5.13841         0.12152
C         -0.01901         5.80001         0.81061
C          1.27763         5.07610         0.72590
C          2.41362         5.73965         0.39382
C          3.70471         5.00264         0.27029
C          4.93143         5.72283        -0.15530
C          6.04526         4.96904        -0.81750
C          7.37342         5.61968        -0.63225
C          8.50271         4.87903        -0.66171
C         -7.45236         7.34884        -0.18718
C         -6.29654         8.06543         0.44511
C         -5.01686         7.34575        -0.07158
C         -3.71460         8.07605        -0.04583
C         -2.53821         7.34367         0.57151
C         -1.17848         7.79307        -0.03894
C         -0.01015         7.30003         0.79451
C          1.32335         8.09300         0.89508
C          2.40028         7.21723         0.14504
C          3.64747         7.93064        -0.24280
C          4.92162         7.18712        -0.38272
C          6.09913         7.85125        -0.53950
C          7.43206         7.13226        -0.42462
C         -6.16302         9.56364         0.23830
C         -4.99522        10.22726         0.22571
C         -3.61605         9.61901         0.01779
C         -2.52756        10.07633         0.99898
C         -1.22968        10.04646         0.69643
C          0.02427        10.34287         0.34283
C          1.24813         9.51815         0.31888
C          2.42327        10.10178        -0.04371
C          3.74744         9.39643         0.16602
C          4.95637        10.02985        -0.48787
C          6.06503         9.30131        -0.74016
C        -11.07838        -0.67962        -1.24879
C         -9.73874        -1.39766        -1.24909
C         -8.87349        -0.74712        -0.15913
C         -7.68809        -1.51621         0.37423
C         -6.52765        -0.75076         0.99003
C         -5.22475        -1.50606         1.22883
C         -3.91297        -0.76934         1.08850
C         -2.69146        -1.53923         0.54738
C         -1.40396        -0.80472         0.99059
C         -0.09290        -1.48117         0.98517
C          1.09790        -0.78136         1.00760
C          2.40380        -1.46906         0.99942
C          3.52786        -0.84557         0.49927
C          4.91014        -1.38988         0.68085
C          6.10479        -0.69213         0.07242
C          7.45442        -1.35717         0.16183
C          8.68450        -0.67036        -0.30484
C          9.96067        -1.52889        -0.36787
C         11.13230        -0.73297        -0.89012
C         -9.77557        -2.89242        -1.08128
C         -8.61324        -3.58523        -0.71095
C         -7.51357        -2.90219        -0.10289
C         -6.35236        -3.68872         0.33269
C         -5.22893        -3.01855         1.06313
C         -3.90836        -3.75907         1.18747
C         -2.64047        -2.98856         0.99521
C         -1.36616        -3.66587         0.59492
C         -0.07370        -2.93061         0.68710
C          1.08984        -3.70724         1.26159
C          2.43327        -2.94090         1.30410
C          3.76250        -3.63715         1.17116
C          5.05926        -2.78989         1.33926
C          6.34899        -3.55663         0.95331
C          7.54749        -2.84091         0.39864
C          8.57953        -3.60765        -0.36137
C          9.64911        -2.83890        -1.13010
C         -8.50527        -5.00109        -0.97921
C         -7.33853        -5.75123        -0.77974
C         -6.02272        -4.99783        -0.39716
C         -5.16386        -5.93202         0.49692
C         -3.93708        -5.31463         1.20745
C         -2.68244        -5.92334         0.55843
C         -1.40603        -5.15428         0.45633
C         -0.09600        -5.88882         0.43445
C          1.18187        -5.16281         0.73970
C          2.45648        -5.64208         0.08875
C          3.74470        -4.89416         0.32216
C          5.06808        -5.57832        -0.04579
C          6.26100        -5.09303         0.83455
C          7.52105        -5.75000         0.28437
C          8.59371        -4.96577        -0.29810
C         -7.23237        -7.11473        -1.00113
C         -5.87691        -7.76954        -1.13299
C         -5.09350        -7.37793         0.13463
C         -3.85712        -8.20661         0.41648
C         -2.57865        -7.43424         0.52089
C         -1.35240        -8.03106        -0.12317
C         -0.10830        -7.21609        -0.26233
C          1.21547        -7.89332        -0.45851
C          2.48222        -7.09325        -0.37498
C          3.80612        -7.88045        -0.31978
C          4.96718        -7.08385         0.26819
C          6.23999        -7.83924         0.50928
C          7.50246        -7.11341         0.25288
C         -5.90436        -9.26538        -1.34448
C         -4.92867       -10.08144        -0.92848
C         -3.83994        -9.69629         0.04889
C         -2.46151       -10.22907        -0.31229
C         -1.27902        -9.51311        -0.25595
C          0.01170       -10.11097        -0.37293
C          1.24063        -9.38449        -0.30861
C          2.44898       -10.00666        -0.03936
C          3.64194        -9.21209         0.45081
C          4.96116        -9.95942         0.40152
C          6.14511        -9.31989         0.41764
O         -3.93642        -5.71797         2.57001
H         -4.71963        -5.32523         3.00976
O         -0.34882         6.56017         1.99851
O          7.96998         3.31895        -2.45660
O          0.60068        -6.07515         1.71556
O          8.26959        -0.47415         1.05904
O          5.73024         4.52913        -2.16934
O         -8.96865        -1.39472         1.12945
O          1.72634         8.16838         2.20735
O         -2.28482        -5.38364        -0.71196
O          8.86532        -0.28035        -2.54851
O         -0.65131        -3.18510        -0.61454
O          1.85293        -7.33567        -1.66841
O         -6.27055        -3.71682         1.81573
O          5.98946        -5.55632         2.12798
O          3.68906         2.95913         1.55077
O         -5.91235        -6.92165         1.25692
O         -1.06301         8.14875        -1.19050
O          5.35434        -7.33780         1.63065
O         -3.26867         5.23697         1.63362
O         -4.44504        -1.11564         2.38592
O         10.82744        -3.62669        -1.24337
H         11.26002        -3.61478        -0.36265
O          2.60458         7.59547        -1.23713
O         -2.64271         7.72630         1.94518
H         -1.98235         7.21458         2.47349
O          4.88325         0.42737        -1.80430
O          4.72050         5.41356         1.26366
O         -5.78480         5.32909        -1.19804
O         -1.63629         3.06766        -1.03313
O          2.94770        -4.68300        -0.89932
O          3.10315        -3.57525         2.45472
O         -8.07910         5.86820         1.65892
H         -9.04800         6.05231         1.68254
O          3.75750         2.92243        -2.07857
H          4.16496         2.35587        -2.77093
O          0.40534         3.33646         2.17616
O         -1.00000        -7.36837        -1.38993
O          7.45664        -3.19753         1.81628
O         -4.39639         1.46022         2.04894
O          4.21568        -8.18270        -1.65829
H          3.41388        -8.11317        -2.23330
O         -5.34711        -4.70348        -1.55291
O         -4.65249         3.08089        -1.12261
O         -1.00806         5.44008        -1.26864
H         -1.41616         4.72765        -1.81472
O          2.37419         0.87317        -0.94166
O          5.36547        -5.35187        -1.41009
H          4.51529        -5.20064        -1.88840
O         -7.09762         2.04357        -1.22532
O         -1.65451         0.01844         2.17317
O         -3.10221        -3.28370         2.32296
O         -4.32592         7.69123        -1.30992
O          0.65194        -3.78433         2.63510
H          1.40444        -4.10405         3.18305
O         -2.82426        -1.68886        -0.87046
H         -2.66268        -0.83251        -1.33359
O          5.16295        -2.54260         2.74130
H          6.05095        -2.15373         2.90537
O         -6.92379         0.16336         2.04948
O          5.67086        -0.38269         1.43947
O         10.33595        -1.94373         0.96524
H          9.74271        -1.47009         1.59816
O         -3.16005        -8.05216         1.69583
O          4.01499         9.41545         1.59563
H          3.22413         9.00735         2.05802
O         -3.19821        10.06277        -1.28508
H         -3.62181         9.47978        -1.95303
O         -9.08732        -1.24181        -2.53631
H         -9.22683        -0.30522        -2.84046
O         -5.16881        -7.25204        -2.27614
H         -5.12119        -6.24923        -2.21071
O         -9.57774         1.09132         1.22862
H         -9.25169         0.43068         1.88635
O         -4.17010       -10.42767         1.26744
H         -3.75637        -9.93439         2.01294
O        -10.05459         5.74764        -0.03848
H        -10.80709         5.36110        -0.53054
O          6.86522         1.05176        -2.95067
H          7.61022         0.52558        -3.35431
O         -6.60312         3.61070         1.96763
H         -7.26972         4.28691         2.23786
O         -2.70206         0.85958        -1.12229
H         -2.13172         1.44634        -1.67319
O          3.33838        -8.84912         1.82404
H          3.39702        -9.65032         2.38477
O         -9.28535         1.36995        -2.43846
H         -8.37580         1.76570        -2.40641
O          8.39043         7.69230        -1.32848
H          8.16098         7.40332        -2.23573
O         -6.26083         7.86603         1.86819
H         -6.93585         7.19152         2.12268
H         12.09737        -1.25857        -0.93658
H         11.99244         1.16405        -1.30617
H         10.67308         3.22911        -0.67836
H          9.47791         5.36324        -0.49579
H          7.82073         7.33823         0.61157
H          6.98012         9.78029        -1.11917
H          4.95979        11.11926        -0.64467
H          2.43451        11.15656        -0.36397
H          0.18725        11.38230        -0.00640
H         -2.84016        10.32126         2.03061
H         -5.02626        11.32752         0.17285
H         -7.09992        10.14129         0.28427
H         -7.62678         7.55695        -1.25696
H         -8.71476         5.47361        -1.62517
H        -10.86554         3.46519        -1.10951
H        -12.10397         1.18529        -1.15155
H        -12.00128        -1.27576        -1.31797
H        -10.61758        -3.45208        -1.51702
H         -9.31603        -5.45539        -1.57228
H         -8.13966        -7.74250        -0.97209
H         -6.69151        -9.66090        -2.00549
H         -4.97083       -11.15058        -1.18821
H         -2.40611       -11.32019        -0.45643
H          0.07069       -11.21056        -0.38298
H          2.46900       -11.10174         0.08363
H          4.93629       -11.05910         0.35205
H          7.08610        -9.88851         0.37611
H          8.35692        -7.69047        -0.12839
H          9.40728        -5.50751        -0.80535
H          9.27937        -2.59935        -2.16154
