         260
 CSIRO Nanostructure Databank - Neutral Graphene Oxide Data Set
C         30.36676        31.65367        -1.12265
C         30.39847        32.90968        -0.99665
C         30.37366        36.06666        -0.62103
C         30.27489        37.30341        -0.67908
C         30.33428        40.29664         0.58425
C         30.33925        41.32794         1.26586
C         32.78425        28.86447        -1.09313
C         31.64260        29.39703        -1.19125
C         32.77397        31.56794        -1.37771
C         31.45335        30.78624        -1.24461
C         32.75781        33.07279        -1.18062
C         31.47682        33.80981        -0.92158
C         32.73454        35.95781        -0.71588
C         31.48594        35.18425        -0.75062
C         32.70627        37.35002        -0.55302
C         31.45138        38.17641        -0.59192
C         32.75957        40.04866         0.70422
C         31.44810        39.57887        -0.04806
C         32.77225        41.53087         1.13124
C         31.45668        42.19364         1.64247
C         32.67353        44.21774         1.62182
C         31.55792        43.66012         1.60113
C         35.39240        27.26745        -0.35989
C         35.17820        28.67376        -0.38457
C         34.06863        29.35994        -0.81442
C         35.25180        31.65068        -0.62730
C         34.14671        30.82579        -1.29577
C         35.24619        33.02876        -0.72324
C         34.01948        33.81152        -0.90757
C         35.26423        35.96655        -1.10384
C         33.98815        35.19614        -0.81366
C         35.22707        37.38788        -0.55954
C         33.95523        38.08684        -0.25864
C         35.09048        40.33021        -0.28665
C         33.98070        39.57583        -0.07122
C         35.06556        41.82097        -0.08217
C         33.87196        42.43238         0.60241
C         35.11755        44.57435         1.04761
C         33.96779        43.85070         1.12808
C         35.45141        45.84304         1.62151
C         37.76405        27.13147         0.09506
C         36.48332        26.65945        -0.31271
C         37.55747        28.51636         0.75180
C         36.36843        29.40305         0.19672
C         37.74568        31.61927         0.20192
C         36.40379        30.91497         0.02416
C         37.82086        33.05030        -0.35484
C         36.53912        33.77111        -0.65781
C         37.62344        35.99204        -0.28028
C         36.52269        35.26377        -0.62436
C         37.69685        37.45546        -0.55915
C         36.44273        38.21887        -0.81947
C         37.52831        40.37128         0.07354
C         36.40102        39.75919        -0.83840
C         37.66943        41.88352        -0.13531
C         36.36143        42.62626        -0.12683
C         37.71686        44.64851         0.79505
C         36.37870        44.03934         0.41586
C         37.85749        45.75901         1.85878
C         36.50111        46.43589         1.89606
C         40.38457        24.53263        -0.33427
C         39.30208        25.15287        -0.30794
C         40.31401        27.21056         0.26532
C         38.96533        26.47939         0.09287
C         40.22880        28.55214         0.97109
C         38.90155        29.27669         0.88576
C         40.32289        31.16834         0.13780
C         38.95556        30.74767         0.53723
C         40.21042        33.37608         0.07108
C         38.95861        33.90005         0.13204
C         40.15360        36.11946         0.39024
C         38.83572        35.36374         0.31079
C         40.24489        37.51537        -0.11183
C         38.96493        38.22551        -0.34984
C         40.19723        40.37382         0.23526
C         38.88803        39.65557         0.08345
C         40.21761        41.84323        -0.11666
C         38.95057        42.56720         0.24069
C         40.24784        44.64320         0.63742
C         38.98733        43.89043         0.58811
C         40.24146        46.07647         0.96288
C         39.04706        46.62310         1.54227
C         40.25535        48.69202         1.83604
C         39.23549        47.94457         1.92923
C         42.92316        24.47712         0.39791
C         41.61118        25.05606         0.23042
C         42.61319        27.09624         1.48426
C         41.52330        26.37474         0.66197
C         42.73563        28.58473         1.08484
C         41.55945        29.26603         0.93849
C         42.70083        31.53794         0.83639
C         41.51442        30.66633         0.58135
C         42.70035        33.06835         0.78964
C         41.43906        33.90099         0.64547
C         42.73758        36.03487         0.31598
C         41.46162        35.41761         0.66168
C         42.73814        37.46232        -0.00221
C         41.49355        38.26254         0.17775
C         42.73556        40.38462         0.37547
C         41.48448        39.62194         0.13429
C         42.69780        41.86484         0.26862
C         41.50378        42.55010         0.21093
C         42.65724        44.78040         0.05289
C         41.44475        43.99366         0.36771
C         42.62587        46.28541         0.14051
C         41.41974        46.88175         0.81763
C         42.76288        48.84207         1.14186
C         41.46715        48.23610         1.30413
C         43.88854        25.04176         0.92527
C         45.27631        27.16016         1.62017
C         44.01736        26.37639         1.50986
C         45.21941        28.75185         1.75935
C         44.08687        29.29312         0.85747
C         45.28301        31.66134         1.05091
C         44.01816        30.82382         1.05187
C         45.19868        33.09612         0.62422
C         44.00414        33.77447         0.55541
C         45.24785        35.94631        -0.17012
C         43.94347        35.20960         0.08578
C         45.32104        37.43902        -0.07003
C         44.04273        38.19817        -0.05938
C         45.35540        40.34867         0.32271
C         44.03627        39.63350         0.37705
C         45.30849        41.85071         0.23191
C         43.99663        42.58813         0.28146
C         45.27352        44.78153         0.06112
C         43.97223        44.05186        -0.09229
C         45.18400        46.23870         0.63234
C         44.04584        47.04773        -0.02780
C         43.77850        48.33858         0.66277
C         47.65659        27.33549         1.00466
C         46.60428        26.73218         1.21841
C         47.90940        28.73714         1.37092
C         46.60360        29.50215         1.55738
C         47.70688        31.38810         0.11601
C         46.68414        31.05546         1.25570
C         47.65779        32.88946        -0.29034
C         46.43436        33.71154         0.01485
C         47.67183        35.85183        -0.72338
C         46.56602        35.23337         0.13421
C         47.67828        37.37508        -0.78254
C         46.50473        38.10429        -0.22893
C         47.79890        40.36826        -0.45575
C         46.59760        39.58564        -0.03015
C         47.80243        41.73930        -0.37470
C         46.49706        42.54786        -0.42589
C         47.89304        44.70419         0.12207
C         46.57279        43.97199         0.15311
C         47.62691        46.15279         0.15079
C         46.57947        46.74051         0.41202
C         50.42730        28.83952         0.61121
C         49.17207        29.46253         1.04050
C         50.34706        31.53062        -0.03455
C         49.11395        30.90186         0.52177
C         50.25524        33.00919        -0.19315
C         48.98168        33.53275        -0.83346
C         50.21354        35.84822        -1.18831
C         48.93079        35.08084        -1.00440
C         50.19227        37.33025        -1.46487
C         48.92015        38.12009        -1.17471
C         50.32223        40.34457        -0.98995
C         48.99712        39.62900        -0.96331
C         50.40295        41.76874        -0.47589
C         49.08972        42.50595        -0.34394
C         50.40563        44.54101        -0.45375
C         49.00909        44.04248        -0.65000
C         51.45935        29.47536         0.31984
C         52.68474        31.71927        -0.32031
C         51.56999        30.84423        -0.08695
C         52.65209        32.93036        -0.59696
C         51.51494        33.83004        -0.44589
C         52.54674        36.01182        -1.26476
C         51.41541        35.17462        -1.03288
C         52.68060        37.24684        -1.27470
C         51.53956        38.13013        -1.53112
C         52.65559        40.39406        -1.05456
C         51.60213        39.55230        -1.15126
C         52.78721        41.67813        -0.88011
C         51.73783        42.52042        -0.68545
C         51.46611        43.91891        -0.61159
O         49.85887        42.07416         0.83517
O         46.62958        33.12444        -1.31215
O         39.24678        36.01764         1.54663
O         37.04569        45.02266        -0.43611
O         47.43287        29.10216         2.69166
O         41.31457        34.64842         1.89550
O         50.86632        33.78370         0.87137
O         38.29079        31.59137         1.54726
O         35.92501        30.30360         1.27055
O         44.84270        42.42467         1.48180
O         33.96692        42.41375        -0.85467
O         42.49928        32.35496         2.04217
O         44.58303        31.32832         2.28971
O         32.77085        32.45414        -2.54040
O         40.17584        42.99532        -2.25414
O         37.10152        42.44357        -1.35645
O         31.51112        39.37037        -1.44671
O         43.34166        37.91159        -1.31418
O         44.69454        26.50492         2.77284
O         50.80529        37.78186        -2.71317
O         35.35481        36.00037        -2.58364
O         39.49377        28.85868         2.16488
O         44.69596        44.54149        -1.25510
O         37.44894        33.24568        -1.73719
O         46.25970        39.91075         1.38163
O         39.47550        39.92232         1.42004
O         47.41216        44.07962         1.33470
O         47.90843        35.32130        -2.03968
O         43.35706        39.89241         1.64008
O         49.50334        40.27932        -2.19364
O         44.52214        35.38944        -1.28945
O         37.20468        37.71329        -1.93937
O         32.42486        41.64658         2.55577
O         39.84209        37.86891        -1.47986
O         49.34604        30.58381         1.92497
O         40.17982        41.71176        -1.66186
O         34.77015        37.42577         0.81382
O         40.38965        32.24882        -0.72968
O         42.32861        45.63620        -1.12785
O         47.88629        37.83517        -2.16495
O         46.94803        35.52957         1.49562
H         46.32975        35.09055         2.11761
O         46.20609        42.60840        -1.83705
H         46.88620        43.17388        -2.27399
O         36.54011        40.16374        -2.19149
H         37.05757        39.47408        -2.66822
O         34.62012        30.68866        -2.65502
H         34.24551        31.44557        -3.16925
O         47.17400        31.73686         2.41292
H         46.60178        31.49154         3.17192
O         36.97295        40.20655         1.40363
H         37.72111        40.18963         2.04676
O         38.08245        45.10526         3.10659
H         38.24311        45.78161         3.79747
O         44.48897        29.01568        -0.50280
H         43.72133        29.12926        -1.10151
O         49.09541        33.01626        -2.17780
H         48.37202        33.43247        -2.70263
O         42.12945        27.08196         2.83201
H         42.87118        27.34757         3.42216
O         37.12704        28.16692         2.07206
H         36.91413        28.99747         2.55262
O         40.61599        27.65277        -1.11171
H         40.68348        26.84894        -1.67375
O         44.31619        47.24165        -1.39091
H         43.79919        46.58277        -1.91081
O         47.34804        30.60754        -1.03578
H         46.92938        31.20575        -1.69621
O         34.30779        36.92548        -3.01892
H         34.53637        37.03798        -3.97401
O         44.82248        28.97352         3.10381
H         45.60439        28.81058         3.67711
O         44.90133        46.14160         2.01645
H         45.67014        45.73908         2.47515
O         48.63700        44.16810        -2.03108
H         49.42123        44.01967        -2.60095
O         41.59171        43.27618        -2.47527
H         41.63542        44.26161        -2.36802
O         32.74875        39.24039         1.89292
H         32.56011        39.82870         2.66346
