         576
 CSIRO Nanostructure Databank - Neutral Graphene Oxide Data Set
C          6.18374        19.24296         1.28258
C          6.11060        20.56599         1.56791
C          4.86260        21.30771         1.49169
C          6.11115        23.42746         1.43319
C          4.87028        22.66455         1.43426
C          5.99323        24.90427         1.13865
C          8.71241        14.97185         1.84538
C          8.68887        16.38436         1.67559
C          7.48782        17.07237         1.51922
C          8.69719        19.25750         1.58731
C          7.48413        18.50861         1.08822
C          8.62469        20.65379         1.74075
C          7.31503        21.34044         2.03998
C          8.58137        23.57420         1.65698
C          7.30342        22.80699         1.65884
C          8.55859        24.83397         0.79796
C          7.30909        25.64667         1.06173
C          8.47156        27.77723         0.69415
C          7.29597        27.00328         1.02356
C          8.41207        29.10848         0.36488
C         11.12620        10.72085         2.25465
C         11.13654        12.10812         2.11706
C          9.92933        12.85242         2.04674
C         11.17659        14.99048         1.91325
C          9.92406        14.26150         1.93435
C         11.16108        16.41949         1.86677
C          9.95483        17.10513         1.69743
C         11.11405        19.27608         1.99530
C          9.93197        18.55483         1.68968
C         10.93684        20.62657         2.28350
C          9.80028        21.38595         2.00536
C         11.09206        23.45312         1.05333
C          9.89185        22.88236         1.87338
C         11.06445        24.97641         0.88283
C          9.86020        25.61439         0.87290
C         10.91487        27.74506        -0.02974
C          9.77933        27.08537         0.68628
C         10.67011        29.02675        -0.78417
C          9.55845        29.83107        -0.14147
C         10.78254        31.91231        -0.59414
C          9.60933        31.19645        -0.14627
C         10.80907        33.29351        -0.52799
C         13.60997         6.41072         1.53224
C         13.55817         7.78897         2.02378
C         12.39926         8.48865         2.17534
C         13.55516        10.62908         1.76266
C         12.40564         9.96934         2.53168
C         13.59481        12.13375         1.87575
C         12.39974        12.84588         1.99875
C         13.65127        14.98141         1.72336
C         12.40506        14.27927         1.92253
C         13.68387        16.41105         1.65048
C         12.45632        17.14596         2.02028
C         13.74169        19.38761         1.61785
C         12.48370        18.66282         2.09135
C         13.82869        20.80549         1.47253
C         12.79503        21.71366         1.90614
C         13.72017        23.68886         0.86758
C         12.50780        22.92742         1.32208
C         13.40537        24.76607        -0.17189
C         12.33891        25.74548         0.41807
C         13.13852        27.53066        -1.27764
C         11.92828        26.79737        -0.63991
C         13.16683        29.02801        -1.33318
C         11.97336        29.77211        -0.98988
C         13.13564        31.89396        -1.48197
C         11.95645        31.15630        -0.98742
C         13.11187        33.39211        -1.52115
C         11.95530        34.08564        -0.88925
C         13.14267        36.29583        -1.10337
C         11.98283        35.43123        -0.66654
C         13.19851        37.56861        -0.29849
C         16.05719         6.23812         2.04719
C         14.76025         5.70631         1.43475
C         16.09084         7.73000         1.76665
C         14.87839         8.46886         2.18910
C         16.07332        10.65094         1.54038
C         14.88345         9.97044         2.08867
C         16.02645        12.03817         1.33021
C         14.81697        12.81030         1.61084
C         16.11426        14.91156         1.28702
C         14.83819        14.21614         1.55564
C         16.11005        16.40761         1.09835
C         14.83896        17.15217         1.31079
C         16.14857        19.22167         0.81611
C         14.86176        18.57221         1.23843
C         16.14040        20.69962         0.54134
C         14.91386        21.47717         0.78415
C         16.15170        23.61134         0.16938
C         14.89377        22.82248         0.49557
C         15.89084        24.89743        -0.60315
C         14.65722        25.48829        -0.65293
C         15.69243        27.50611        -1.79958
C         14.45712        26.76925        -1.38500
C         15.63466        29.03828        -1.90559
C         14.36797        29.73352        -1.57704
C         15.63417        31.88361        -1.59266
C         14.41794        31.16500        -1.56172
C         15.66543        33.32133        -1.46057
C         14.42192        34.15897        -1.73498
C         15.60442        36.10536        -0.69387
C         14.43804        35.51156        -1.05602
C         15.63254        37.48825        -0.22730
C         14.36459        38.12297         0.08616
C         18.36591         5.79509         0.90962
C         17.32383         5.44338         1.76118
C         18.26724         7.75032         0.59970
C         17.15986         8.41805         1.24533
C         18.26992        10.50611         0.48299
C         17.19658         9.88293         1.13843
C         18.26771        11.90701         0.31355
C         17.15081        12.68762         0.74879
C         18.15758        14.71789        -0.14293
C         17.17166        14.11011         0.62882
C         18.37948        16.20062        -0.06082
C         17.20892        17.03880         0.31956
C         18.41805        19.06862        -0.37477
C         17.25353        18.40460         0.21082
C         18.35110        20.51089        -0.72005
C         17.12758        21.32309        -0.38547
C         18.31828        23.36952        -1.08768
C         17.21776        22.77803        -0.48612
C         18.32665        24.80175        -1.34043
C         17.07992        25.54434        -1.17364
C         18.18934        27.56750        -2.20611
C         16.99367        26.83132        -1.65269
C         18.16862        29.00444        -1.71747
C         16.90154        29.77824        -1.78605
C         18.13312        31.91250        -1.59428
C         16.89548        31.16022        -1.60876
C         18.12230        33.28873        -1.44355
C         16.87348        33.98459        -1.28240
C         17.99150        36.31796        -1.37822
C         16.93511        35.39076        -0.72217
C         18.07135        37.60194        -0.56710
C         16.82613        38.16831        -0.12854
C         20.78290         6.10963         0.19775
C         19.72199         5.37624         0.84389
C         20.72380         7.55023         0.00167
C         19.60805         8.39168         0.57568
C         20.62418        10.49398        -0.40760
C         19.34673         9.70976        -0.22659
C         20.61281        11.85535        -0.64713
C         19.31567        12.52994        -0.43958
C         20.89653        14.87678        -1.36783
C         19.05535        13.84394        -0.81402
C         20.80924        16.27845        -1.19512
C         19.60750        16.92647        -0.61388
C         20.69196        19.15138        -1.46040
C         19.52748        18.38724        -0.80597
C         20.86122        20.51676        -0.70732
C         19.57898        21.26350        -0.95070
C         20.75371        23.21716        -1.82416
C         19.53287        22.59241        -1.26330
C         20.69557        24.67270        -2.17318
C         19.47757        25.44739        -1.80990
C         20.72915        27.57273        -2.03311
C         19.51127        26.86834        -1.95959
C         20.74577        29.01327        -1.98249
C         19.46994        29.73244        -1.71480
C         20.70872        31.95365        -1.85799
C         19.40702        31.21138        -1.89914
C         20.69058        33.38487        -1.45120
C         19.37876        34.08743        -1.59289
C         20.61156        36.33111        -1.18228
C         19.33919        35.59399        -1.54020
C         20.54547        37.68912        -0.58598
C         19.25300        38.26299        -0.33287
C         23.07751         6.14657        -0.90056
C         21.95896         5.44825        -0.17497
C         23.12969         7.61572        -0.55929
C         21.90351         8.26043        -0.29441
C         23.14602        10.50277        -0.17916
C         21.86627         9.74026        -0.14580
C         23.10011        11.93528        -0.53612
C         21.89804        12.60679        -0.78206
C         23.23573        14.80308        -0.83883
C         21.96026        14.05140        -1.00900
C         23.25664        16.28540        -1.09828
C         22.00651        17.04537        -1.26870
C         23.26732        19.17646        -1.79278
C         22.00494        18.40946        -1.45422
C         23.42082        20.49178        -0.90862
C         22.11869        21.26752        -1.10955
C         23.27743        23.27312        -2.00095
C         22.06288        22.52255        -1.64701
C         23.24106        24.66809        -2.25330
C         21.96234        25.42625        -2.57255
C         23.19915        27.55292        -2.11250
C         21.99642        26.87436        -2.13424
C         23.21272        28.99438        -1.89877
C         21.94716        29.71259        -1.92995
C         23.13255        31.82376        -1.54606
C         21.96099        31.15788        -1.73870
C         23.16675        33.30676        -1.30020
C         21.84122        34.02822        -1.11546
C         22.89841        36.21720        -0.08640
C         21.86022        35.51817        -0.88489
C         22.95585        37.64765        -0.03317
C         21.70901        38.35020        -0.23085
C         25.61034         6.14507        -0.68845
C         24.39105         5.45609        -0.69513
C         25.62868         7.58773        -0.62988
C         24.37726         8.32773        -0.50624
C         25.65397        10.43724        -0.11653
C         24.39210         9.72152        -0.33229
C         25.67046        11.94363        -0.17754
C         24.36127        12.73295        -0.20398
C         25.69262        14.68038        -1.52151
C         24.45647        14.00889        -0.99627
C         25.72016        16.17421        -1.22891
C         24.49476        16.96849        -1.49611
C         25.77826        19.02864        -1.81045
C         24.51782        18.31584        -1.71737
C         25.79001        20.38748        -1.92643
C         24.68960        21.24365        -1.34608
C         25.72002        23.25520        -2.29516
C         24.52564        22.60357        -1.94577
C         25.59329        24.58337        -2.73639
C         24.44226        25.36664        -2.51934
C         25.79617        27.58508        -1.97179
C         24.49584        26.86070        -2.42234
C         25.56412        28.83155        -1.11642
C         24.40066        29.65511        -1.61207
C         25.64549        31.81022        -0.88067
C         24.43778        31.12290        -1.51714
C         25.36283        33.04908        -0.09815
C         24.08848        33.49257        -0.13887
C         25.16899        36.03274         0.89043
C         23.88661        35.52664         0.60798
C         25.26825        37.47222         0.86370
C         24.12112        38.24183         0.48415
C         28.08342         6.12489        -0.90017
C         26.86299         5.44847        -0.74589
C         28.07897         7.54845        -0.91666
C         26.87560         8.24860        -0.69320
C         28.16672        10.44542        -0.69607
C         26.93959         9.68891        -0.35351
C         28.14069        11.78801        -0.87978
C         26.93297        12.60939        -0.63076
C         28.19171        14.68893        -0.98664
C         26.96427        14.00726        -1.10799
C         28.28262        16.14427        -1.05201
C         27.01686        16.88634        -1.21640
C         28.24591        19.08053        -1.09611
C         27.06379        18.32106        -1.60350
C         28.05260        20.50885        -0.59254
C         26.83956        21.25373        -1.27720
C         28.22679        23.38646        -1.56705
C         27.08224        22.53512        -2.13107
C         28.34204        24.75119        -1.62469
C         27.37154        25.66674        -2.20530
C         27.98524        27.36409        -0.54323
C         27.06005        26.86739        -1.64912
C         27.99471        28.87741        -0.44998
C         26.82441        29.59702        -0.73925
C         27.82749        31.58608         0.29581
C         26.78079        30.97424        -0.41891
C         27.64103        32.92541         0.92702
C         26.34845        33.68006         0.84060
C         27.50057        35.82699         1.49447
C         26.33198        35.18928         1.09838
C         27.56270        37.26223         1.73913
C         26.45864        38.06564         1.32577
C         30.57593         6.09563        -0.97843
C         29.36371         5.43454        -0.92929
C         30.63679         7.54242        -1.08601
C         29.33832         8.30218        -1.28782
C         30.70428        10.37354        -0.98174
C         29.44105         9.64779        -0.57891
C         30.68096        11.82050        -1.13528
C         29.38148        12.54936        -1.13504
C         30.59088        14.55065        -0.11662
C         29.39038        13.97508        -0.81421
C         30.57047        16.08419        -0.09020
C         29.39159        16.81814        -0.61903
C         30.69007        19.04474        -0.29034
C         29.36863        18.29918        -0.45574
C         30.70780        20.49036        -0.64635
C         29.40532        21.25594        -0.60813
C         30.73955        23.36021        -1.19289
C         29.42297        22.69094        -1.00849
C         30.75663        24.73317        -1.08464
C         29.49527        25.43277        -1.06400
C         30.54068        27.46045        -0.24371
C         29.37467        26.75721        -0.67993
C         30.44346        28.89195         0.03797
C         29.12913        29.55382         0.05036
C         30.16376        31.49228         1.23710
C         29.04682        30.89330         0.49689
C         30.05038        32.84885         1.72186
C         28.89614        33.65366         1.26096
C         29.82397        35.64745         2.49289
C         28.79832        35.11424         1.58443
C         29.84265        37.10042         2.93088
C         28.68617        37.85453         2.32598
C         33.03455         6.03894        -0.85379
C         31.84675         5.39728        -0.79821
C         33.13510         7.47999        -1.29070
C         31.83730         8.21834        -1.07720
C         33.16970        10.38480        -1.11771
C         31.90696         9.67873        -1.07292
C         33.12382        11.82769        -1.06349
C         31.92173        12.55998        -0.88431
C         33.14435        14.58292        -0.24880
C         31.92136        13.92780        -0.54583
C         33.14322        16.02284         0.13404
C         31.87210        16.82561         0.05145
C         33.17501        18.89833        -0.49072
C         31.95262        18.26810        -0.28880
C         33.18414        20.33458        -0.90292
C         31.90007        21.09880        -0.93257
C         33.29783        23.30117        -0.97883
C         31.97332        22.55532        -1.23219
C         33.28556        24.77480        -0.70583
C         31.97636        25.52168        -0.82686
C         32.87402        27.43115         0.56109
C         31.79213        26.83780        -0.16712
C         32.77707        28.71766         1.10312
C         31.62638        29.56138         0.72818
C         32.43430        31.34824         2.29435
C         31.34824        30.80440         1.46193
C         32.33963        32.79850         2.77969
C         31.06092        33.47575         2.43238
C         32.72101        35.84953         3.09273
C         30.80577        34.80663         2.91903
C         32.43580        37.20714         2.63661
C         31.19097        37.74282         2.54819
C         34.31285         8.24681        -0.75495
C         35.65125        10.24377        -0.36301
C         34.39313         9.62871        -0.82113
C         36.11606        11.48825        -0.74527
C         34.28264        12.63544        -1.11514
C         35.71100        14.50125        -0.27786
C         34.36680        13.90841        -0.53802
C         35.73191        15.99935        -0.10866
C         34.44073        16.77116         0.00948
C         35.67563        18.88249        -0.29170
C         34.42921        18.20841        -0.34256
C         35.63849        20.36671        -0.02211
C         34.49410        21.08014        -0.73212
C         35.53213        23.18002         0.09779
C         34.47012        22.54326        -0.50070
C         35.41159        24.55720         0.57368
C         34.29731        25.30810         0.22890
C         35.16146        27.16876         1.74529
C         34.02664        26.56909         0.92865
C         35.06020        28.57594         2.31042
C         33.83472        29.34367         1.85134
C         34.93703        31.38973         2.68936
C         33.74992        30.66938         2.24083
C         34.81824        32.82216         2.91823
C         33.64518        33.53794         2.89357
C         33.72161        34.99649         2.72348
C         37.15192        12.35742        -0.28482
C         38.18069        14.56205        -0.19009
C         37.03770        13.77340        -0.40423
C         38.20746        16.00189        -0.16930
C         36.95964        16.74255        -0.60697
C         38.12094        18.92118         0.07128
C         36.90869        18.21048        -0.23641
C         38.13679        20.29241         0.21772
C         36.95826        21.07399        -0.33761
C         37.98925        23.14108         0.90260
C         36.86804        22.52191         0.12445
C         37.61735        24.28417         1.82423
C         36.50323        25.16457         1.31354
C         37.76610        27.26679         1.91942
C         36.46015        26.48813         1.68960
C         37.48896        28.56979         2.63280
C         36.35613        29.39287         2.08168
C         36.17226        30.78158         2.65706
C         39.33682        16.69006         0.17412
C         40.36139        18.77704         1.13277
C         39.45282        18.18638         0.08138
C         40.34887        20.11066         1.37896
C         39.41728        21.01366         0.58590
C         40.03525        22.84450         2.25284
C         39.14305        22.32046         1.30247
C         39.92604        24.18457         2.70981
C         38.83013        25.02360         2.34738
C         38.81455        26.38395         2.55344
C         41.25803        20.71795         2.33689
C         41.14107        22.01528         2.71482
O         25.49348        31.80425        -2.32455
O         18.86760        29.26340        -0.44881
O         15.03956         9.31867         3.37255
O         23.81651        33.86555        -2.53513
O         31.00224        16.57159         1.21894
O         34.09710        20.58646        -2.02903
O         26.44406         9.92000         1.01384
O         20.43663        23.64690        -3.20805
O         12.62699        17.86370         3.30597
O         26.66637        32.88376         2.03994
O         32.99916        25.58513        -1.88740
O         20.02656        31.68144        -3.13598
O         23.59376        34.20390         0.94706
O         19.51937        16.52028         0.81776
O         21.66589        36.21726        -2.17959
O         17.99602         6.71118        -0.20910
O         37.86627        23.38322        -0.53787
O         33.85106        16.46682         1.33171
O         17.26474        20.69548        -1.70896
O         13.49090        26.78087        -2.48722
O         32.87811        22.93162        -2.31710
O         32.11380        31.68711         3.69564
O         15.54978        28.16955        -3.08845
O         34.12378        26.34776         2.39913
O         31.43256        29.67908        -0.71990
O         28.13533        18.75962        -2.50906
O         16.70488        20.18174         1.79114
O         25.34805        27.62005        -3.33823
O         11.97470        21.27506         2.93547
O         12.76276        32.64629        -2.73618
O         19.73426        14.32457        -1.92316
O         10.83596        27.84576         1.39872
O         35.86040        15.15051         1.05226
O          9.30710        23.68300         2.94047
O         26.26491        16.62042         0.04889
O         23.32630        15.76318         0.29785
O         22.47633        10.18652         1.13606
O         16.59966        15.79358         2.35253
O         26.69921        25.19538        -3.34042
O         31.70432        35.28852         3.89390
O         29.78812        18.77235         0.83987
O         35.38087        12.11910        -1.77897
O         29.34559        22.28923         0.44140
O         19.39189        34.91941        -2.82631
O         29.29072        34.66165         0.25811
O         30.02498        12.24101        -2.44008
O         25.74808        21.56260        -0.26127
O         26.56360        12.51330         0.82793
O         37.13078        21.08532        -1.76810
H         37.82567        21.75234        -1.96669
O         40.10144        21.32401        -0.68677
H         40.87006        21.89722        -0.47826
O         25.10900        28.26198         0.18142
H         24.94248        29.00649         0.79927
O         17.39976        35.22299         0.65227
H         16.70659        34.74799         1.15669
O         40.06435        18.46896        -1.22231
H         40.15972        19.45188        -1.28598
O         12.95425        26.51892         1.45013
H         13.22483        25.91696         2.18106
O         20.89558        20.25207         0.70696
H         21.81715        19.99849         0.95719
O         14.17327        24.37732         2.11724
H         14.18026        23.69697         2.82687
O         12.90438        36.67116        -2.49620
H         13.38235        36.01151        -3.05820
O         16.73649        24.03579         1.44290
H         16.01875        24.49513         1.94253
O         15.85566         6.15581         3.48727
H         15.63697         5.22758         3.71086
O         35.42342        20.53594         1.40537
H         34.85013        19.81065         1.73266
O         19.92373         8.76886         1.93129
H         20.80772         9.20246         1.94573
O          5.11367        25.52327         2.08939
H          5.47846        25.37429         2.98580
O         17.52899        36.69491        -2.68204
H         17.91270        36.05481        -3.32601
O         29.72220        37.19002         4.37525
H         30.43793        36.62506         4.74824
O         38.27080        27.54704         0.57701
H         37.67698        28.24038         0.19606
O         36.48060        29.55831         0.63457
H         37.02804        30.35395         0.46653
O         10.77579        22.88491        -0.27266
H         11.49885        23.18844        -0.89197
O         18.83082         9.30393        -1.52092
H         18.79977        10.09432        -2.09973
O         27.67813        20.33726         0.77979
H         27.96044        21.14558         1.26508
O         33.32707         7.43816        -2.75622
H         32.52535         7.02643        -3.14313
O         10.20905        28.62890        -2.11738
H         10.12736        29.44004        -2.66335
O         25.60205        14.63261        -3.01273
H         25.84342        13.72758        -3.30370
O          8.44820        24.37585        -0.58063
H          9.23623        23.79630        -0.75424
O          7.63874        18.43972        -0.38933
H          8.46162        17.93779        -0.57267
O         29.58329         9.34289         0.83876
H         29.22882        10.09206         1.36346
O         27.47234        26.88848         0.73698
H         26.54667        27.23165         0.81498
O         11.23043        26.10858        -1.70188
H         10.85665        26.79927        -2.30074
O         12.88802        24.09087        -1.34308
H         12.58447        24.79525        -1.97294
O         30.42391        14.09371         1.26293
H         30.65820        14.85938         1.84411
O         36.88484        16.66748        -2.06088
H         37.62693        17.19610        -2.42550
O         24.27724        35.20351        -2.25285
H         23.63065        35.76603        -2.75188
O         23.57400        20.10141         0.46196
H         24.47281        20.37190         0.76224
O          7.24735        21.32852         3.50848
H          7.93547        21.95170         3.83307
O         22.77898         6.05993        -2.36972
H         21.83064         6.28686        -2.48146
O         37.03272        23.60956         2.98536
H         36.70978        24.29512         3.60753
O         20.32244        19.49005        -2.81838
H         20.13438        18.66306        -3.30731
O         24.11300        13.15861         1.16645
H         24.98971        13.39106         1.55513
O         18.06665        27.66545        -3.65231
H         17.86572        26.77606        -4.01103
O         13.30492        10.34354         0.35155
H         13.87927        10.92745        -0.18670
O         34.93685        28.43540         3.74269
H         34.26528        27.73432         3.90196
O         29.22652         8.58400        -2.71310
H         29.13557         7.73072        -3.18623
O         27.52755        22.06434        -3.42080
H         27.59009        22.83589        -4.02335
O         23.15499        19.69501        -3.14165
H         22.93958        18.95665        -3.74735
O         12.65846        10.13165         3.95015
H         11.97361         9.63745         4.44512
O         21.95533        25.51102        -4.02709
H         21.55656        24.66953        -4.35303
O         14.48658        34.46735        -3.16393
H         14.04033        33.71452        -3.62471
H          5.26845        18.70438         0.98768
H          3.91924        20.74907         1.39920
H          3.92969        23.22412         1.33166
H          5.48956        25.00925         0.13732
H          7.76084        14.42084         1.86666
H          6.54428        16.50592         1.49260
H          6.33881        27.53356         1.14747
H          7.46365        29.65540         0.48087
H         10.16013        10.20260         2.36561
H          8.96829        12.31878         2.09068
H          8.77308        31.77961         0.26797
H          9.91973        33.82443        -0.15646
H         12.66592         5.96297         1.18299
H         11.43432         7.98126         2.01277
H         11.09987        35.91960        -0.22514
H         12.24570        38.08002        -0.09469
H         14.74863         4.68694         1.02011
H         14.38218        39.09177         0.60837
H         17.57889         4.71248         2.54356
H         16.83315        39.19373         0.27262
H         19.97740         4.40946         1.30194
H         19.22239        39.23387         0.18632
H         22.03062         4.36007        -0.02656
H         21.64589        39.39669         0.10417
H         24.39998         4.35468        -0.68451
H         24.16628        39.33579         0.58790
H         26.85495         4.34805        -0.72433
H         26.53308        39.16052         1.39967
H         29.35718         4.33916        -0.81868
H         28.67740        38.94695         2.46671
H         33.96911         5.47813        -0.69893
H         31.80979         4.32263        -0.56114
H         33.28668        37.80162         2.26490
H         31.12457        38.77000         2.15176
H         35.19803         7.67614        -0.43306
H         36.25428         9.64621         0.33756
H         35.76327        33.38188         3.00198
H         34.60469        35.39301         2.19906
H         38.08558        11.94333         0.12727
H         39.14336        14.04429        -0.05036
H         37.58825        28.57358         3.73149
H         37.07005        31.37013         2.90373
H         40.24398        16.13120         0.45561
H         41.07520        18.12334         1.65904
H         40.76137        24.61116         3.28620
H         39.70605        26.87082         2.98035
H         42.05107        20.08533         2.76318
H         41.84741        22.44934         3.43708
