         260
 CSIRO Nanostructure Databank - Neutral Graphene Oxide Data Set
C         30.51878        31.94979         1.47098
C         30.53354        33.19232         1.50166
C         30.46767        36.30914         0.41986
C         30.44008        37.31776        -0.28571
C         30.49308        40.26982        -0.16936
C         30.68728        41.24183         0.57560
C         32.83932        29.02291         1.51607
C         31.74301        29.63970         1.55750
C         32.88216        31.70747         1.19789
C         31.61129        31.03451         1.43253
C         32.89752        33.16896         0.93575
C         31.68769        34.04397         1.20585
C         32.75789        35.96543        -0.17668
C         31.63800        35.46379         0.69128
C         32.72852        37.14788        -0.91675
C         31.49951        38.05465        -0.99359
C         32.76184        40.41780        -1.00942
C         31.50189        39.58532        -1.02203
C         32.71047        41.85740        -0.64278
C         31.80987        41.99946         1.11335
C         33.01064        44.18592         0.90723
C         32.03852        43.42898         1.12165
C         35.63813        27.42738         1.46264
C         35.35970        28.79800         1.30483
C         34.14973        29.52771         1.31942
C         35.38551        31.75636         1.13484
C         34.08939        30.96365         1.15101
C         35.26071        32.98716         0.24157
C         33.99974        33.76797         0.37994
C         35.25755        35.80881        -0.70067
C         33.93941        35.10248        -0.28136
C         35.23220        37.23719        -1.02320
C         33.98098        37.66192        -1.42486
C         35.26964        40.49186        -1.14264
C         33.96423        39.91404        -1.41439
C         35.29524        41.84394        -0.88294
C         34.03051        42.59039        -0.71007
C         35.49898        44.52957         0.24025
C         34.14703        43.97331         0.01008
C         35.78796        45.88133         0.60992
C         38.03813        27.23456         1.29385
C         36.68380        26.73704         1.53572
C         37.98582        28.80048         1.38398
C         36.66347        29.46451         0.94068
C         37.94070        31.71820         0.75929
C         36.63835        30.95170         0.78488
C         37.86797        33.10713         0.21271
C         36.52952        33.67812        -0.15360
C         37.79335        35.92805        -0.56141
C         36.53403        35.17057        -0.31021
C         37.81481        37.36997        -0.99561
C         36.48854        38.08064        -1.19696
C         37.82082        40.29441        -1.06963
C         36.48042        39.58806        -0.79268
C         37.84243        41.79627        -1.02041
C         36.56382        42.64940        -1.07042
C         37.89784        44.65450        -0.39260
C         36.65253        43.92114        -0.24757
C         37.88064        46.14587        -0.43246
C         36.71387        46.65933         0.31376
C         40.14342        24.24357         0.12924
C         39.19762        25.06022         0.29552
C         40.16892        27.29050        -0.21646
C         39.15663        26.48711         0.58557
C         40.22767        28.65699        -0.04486
C         39.23552        29.44794         0.74785
C         40.19943        31.53039        -0.46627
C         39.20727        30.93389         0.53881
C         40.29834        33.02570        -0.30533
C         38.98823        33.65034        -0.67403
C         40.33574        35.91408        -0.47614
C         39.06734        35.16657        -0.73656
C         40.23055        37.38107        -0.24211
C         39.07129        38.07044        -0.57674
C         40.31404        40.26936        -0.20835
C         39.10669        39.54694        -0.73454
C         40.22235        41.74977         0.07563
C         39.03248        42.49511        -0.40888
C         40.37365        44.64524        -0.63139
C         39.10835        43.98045        -0.54133
C         40.45492        46.03968        -0.76206
C         39.19885        46.86241        -0.67082
C         40.40047        48.94197         0.11907
C         39.44435        48.22505        -0.21173
C         42.64952        24.14615        -0.53381
C         41.26591        24.29112        -0.71486
C         42.60487        27.09841        -0.65530
C         41.31224        26.60057        -0.83657
C         42.69988        28.57106        -0.69981
C         41.40398        29.37728        -0.58489
C         42.69065        31.50734        -0.20298
C         41.52295        30.83068        -0.33405
C         42.65425        32.90801         0.31281
C         41.43674        33.70280         0.00422
C         42.65343        35.84301         0.39299
C         41.52442        35.15888        -0.00684
C         42.60958        37.29830         0.44616
C         41.44757        38.02864         0.20939
C         42.68985        40.21502         0.49464
C         41.34716        39.49916         0.60864
C         42.75675        41.69867         0.32350
C         41.49858        42.56928         0.34851
C         42.93224        44.56101        -0.31341
C         41.63762        43.77902        -0.66590
C         42.91525        46.06159        -0.34304
C         41.74937        46.68676        -0.83593
C         42.96386        49.08367         0.36661
C         41.75922        48.91035        -0.30607
C         43.64456        24.85021        -0.86647
C         45.17465        26.99611        -0.39341
C         43.86472        26.27527        -0.53947
C         45.23370        28.53443        -0.21960
C         43.99609        29.32372        -0.53252
C         45.21889        31.56614         0.10508
C         43.99890        30.82523        -0.32460
C         45.18779        32.89122         0.44606
C         43.90414        33.60384         0.75300
C         45.14371        35.87078         0.93244
C         43.82518        35.12328         1.10626
C         45.12946        37.23270         0.93445
C         43.83025        37.97749         0.98180
C         45.16717        40.21989         1.34080
C         43.84633        39.47651         1.10020
C         45.13963        41.71347         1.04534
C         44.03172        42.39604         0.67210
C         45.17392        44.64686         1.02908
C         44.08252        43.85791         0.35467
C         45.10530        46.20919         1.03313
C         44.06266        46.79470         0.11311
C         43.83204        48.15569         0.14550
C         47.57907        27.25729        -0.86321
C         46.54496        26.59676        -0.75322
C         47.75240        28.71712        -0.89412
C         46.51417        29.33110        -0.23852
C         47.78708        31.63128        -0.16341
C         46.52021        30.83928        -0.02318
C         47.69927        33.15866        -0.10056
C         46.46068        33.63207         0.66446
C         47.72072        35.87127         0.86135
C         46.42284        35.10401         0.94432
C         47.69471        37.36809         0.75302
C         46.35509        38.03320         0.60846
C         47.62039        40.28941         0.53390
C         46.32100        39.52500         0.59744
C         47.42021        41.74809         0.07036
C         46.52231        42.35155         1.21884
C         47.88682        44.53968         1.26442
C         46.45402        43.89706         1.28011
C         47.55222        45.99187         1.20401
C         46.54750        46.59020         0.80854
C         50.33687        29.07842        -1.39755
C         48.96035        29.54621        -1.18478
C         50.27919        31.55843        -0.12535
C         49.02543        31.08130        -0.88676
C         50.21770        32.96172         0.51941
C         48.99589        33.78133         0.41251
C         50.20293        35.95325         0.66012
C         49.00566        35.16597         0.61157
C         50.16484        37.38276         0.47182
C         48.95662        38.07344         0.41885
C         50.07291        40.27655        -0.22965
C         48.91879        39.55855         0.39525
C         50.03969        41.79866        -0.28706
C         48.72252        42.52275        -0.16950
C         50.00625        44.53083        -0.15560
C         48.58319        44.09897        -0.04872
C         51.38781        29.69874        -1.12997
C         52.65233        31.82298        -0.20612
C         51.61104        30.95468        -0.52916
C         52.66004        32.89067         0.45942
C         51.51743        33.70516         0.83825
C         52.62221        36.08986         0.52677
C         51.48631        35.22855         0.86184
C         52.55390        37.26917         0.16887
C         51.47039        38.25277         0.50912
C         52.45713        40.49736        -0.40585
C         51.37823        39.51298        -0.32486
C         52.47334        41.73200        -0.51752
C         51.38915        42.57354         0.11355
C         51.10573        43.99195        -0.26891
O         38.09496        32.88122         1.62484
O         35.78681        32.88332        -1.11036
O         37.98522        41.07114        -2.28195
O         47.09446        42.03061         2.45288
O         31.98355        35.17578         2.06282
O         39.16149        42.08293         1.02335
O         51.54173        34.43528         2.06733
O         34.48031        35.02638        -1.64007
O         40.23899        39.93762        -1.60428
O         50.48815        39.56832        -1.45212
O         44.07650        44.07819        -1.10494
O         42.92223        40.79780        -0.82181
O         44.52811        26.43326         0.76056
O         37.31010        37.69857        -2.32983
O         41.06693        25.42569        -1.58595
O         31.18032        38.80037        -2.17389
O         33.93018        38.78528        -2.22969
O         43.48732        38.66249         2.24987
O         45.98814        28.76932         1.00232
O         47.82273        36.71756         2.05960
O         46.57996        34.10307         2.02319
O         41.82786        47.96945        -1.42710
O         36.58570        30.06902        -0.38101
O         47.97318        29.29340        -2.21779
O         49.33456        42.24586        -1.47614
O         39.88228        35.58259        -1.85874
O         41.92630        29.00408        -1.87769
O         50.08407        31.71474         1.29437
O         38.20651        46.70879        -1.71077
O         44.23103        30.22383        -1.66030
O         33.87045        43.87885        -1.40134
O         48.48089        40.13798         1.68395
O         43.07500        32.86991         1.72904
O         47.45626        31.05620         1.10822
O         39.17481        26.76247         2.02820
O         39.75938        31.28678        -1.78063
O         39.86563        30.37411         1.70430
O         46.08880        38.78973        -0.63676
O         45.56618        44.23054         2.37087
O         37.23434        35.81725         0.79986
O         51.65170        38.70144         1.83972
H         51.71686        37.93268         2.44387
O         44.71204        46.62010         2.33143
H         45.22147        46.08333         2.98187
O         36.44958        39.54380         0.66488
H         35.68204        39.01131         0.96151
O         37.99811        29.08140         2.79160
H         38.82943        28.72372         3.17288
O         38.61200        33.21071        -1.99038
H         39.32085        33.46277        -2.62228
O         35.56748        32.28210         2.46987
H         35.83184        31.56053         3.07798
O         48.61219        44.12731         2.38839
H         48.17246        43.30692         2.76226
O         46.66033        41.76502        -1.13614
H         47.28030        41.66978        -1.89251
O         45.46460        40.06571         2.73234
H         46.20279        40.70400         2.95899
O         47.47809        33.67884        -1.43639
H         48.14291        33.26102        -2.03918
O         49.10762        31.70289        -2.19048
H         48.64937        31.11945        -2.83882
O         36.44777        43.13416        -2.43332
H         36.77712        42.42111        -3.02871
O         41.42051        43.13762         1.66300
H         40.51245        42.95830         2.00891
O         31.75906        42.49915        -1.42612
H         32.08431        43.41331        -1.61125
O         41.75349        43.25703        -1.98676
H         42.70405        43.05647        -2.15196
O         43.50551        35.23687         2.50525
H         43.08661        34.39016         2.78870
O         32.43755        41.34930         2.15637
H         31.93860        40.54718         2.40899
O         51.49382        42.48925         1.50570
H         52.22025        43.06229         1.82434
O         40.91322        39.54430         1.98206
H         41.63554        39.14712         2.52942
O         47.77276        44.51869        -1.12316
H         48.20146        44.24143        -1.96056
