         276
 CSIRO Nanostructure Databank - Neutral Graphene Oxide Data Set
C        -11.09392         0.53917        -0.51217
C         -9.95754         1.44913        -0.42465
C         -8.60504         0.82897        -0.54289
C         -7.56184         1.42217         0.37448
C         -6.33647         0.64247         0.76024
C         -5.05973         1.43084         0.59766
C         -3.76999         0.68586         0.75163
C         -2.52948         1.46652         1.01185
C         -1.27433         0.69256         0.84603
C         -0.23247         1.47259         0.09240
C          1.00411         0.65302        -0.39091
C          2.30352         1.36674        -0.60979
C          3.58109         0.60904        -0.91219
C          4.84219         1.25995        -0.40889
C          6.10534         0.48787        -0.24152
C          7.37914         1.22448         0.08344
C          8.45560         0.37947         0.64531
C          9.44599         1.04967         1.49720
C         10.36590         0.16947         2.21395
C         -9.98603         2.81360        -0.34136
C         -8.66214         3.55883        -0.50627
C         -7.59498         2.94066         0.38452
C         -6.37358         3.70821         0.73555
C         -5.05184         2.99056         0.46325
C         -3.79804         3.67054         1.02120
C         -2.49080         2.96291         0.88021
C         -1.28925         3.61778         0.95992
C          0.03493         2.80730         0.88528
C          1.15435         3.51718         0.12836
C          2.47222         2.74564         0.01876
C          3.64326         3.49965        -0.60849
C          5.00167         2.77641        -0.55566
C          5.93383         3.32363         0.55235
C          7.29704         2.65928         0.47432
C          8.31597         3.32930         1.37708
C          9.49952         2.41589         1.64040
C         -8.65917         5.07623        -0.44297
C         -7.57632         5.81851        -0.09968
C         -6.37915         5.20391         0.54125
C         -5.08820         5.95501         0.71796
C         -3.80870         5.17792         0.97602
C         -2.49881         5.90677         0.78521
C         -1.23280         5.11118         0.99888
C          0.12107         5.79000         0.80773
C          1.14583         4.99451         0.02363
C          2.37727         5.74116        -0.43100
C          3.66340         4.98312        -0.55826
C          4.88495         5.66844        -0.00673
C          6.05159         4.86674         0.49280
C          7.41834         5.48888         0.45763
C          8.49836         4.74724         0.81873
C         -7.62757         7.34271        -0.21727
C         -6.28244         8.09472        -0.14684
C         -4.98222         7.39595         0.28225
C         -3.70562         7.95476        -0.14948
C         -2.53332         7.02115        -0.29241
C         -1.19343         7.74846        -0.51632
C          0.03689         7.14743         0.07695
C          1.35522         7.85727         0.34195
C          2.46698         7.24718        -0.48264
C          3.82597         7.89881        -0.81515
C          4.99488         7.16495        -0.15693
C          6.34476         7.79578        -0.21539
C          7.60195         6.91060        -0.13441
C         -6.10794         9.32397        -0.94320
C         -4.90033         9.93502        -1.02945
C         -3.64678         9.27502        -0.66890
C         -2.43683         9.90593        -0.98345
C         -1.12320         9.18349        -1.13631
C          0.08824         9.99971        -0.63168
C          1.37136         9.89224        -0.99005
C          2.65890        10.08977        -1.25591
C          3.87617         9.43126        -0.54224
C          5.24223         9.87320        -1.06383
C          6.35780         9.13421        -0.89041
C        -11.02507        -0.82364        -0.48456
C         -9.88761        -1.67051        -0.10592
C         -8.88275        -1.14915         0.89133
C         -7.45520        -1.61199         0.66532
C         -6.31061        -0.86349         0.67198
C         -4.99582        -1.59331         0.72329
C         -3.70494        -0.83943         0.84553
C         -2.44626        -1.54932         1.40226
C         -1.16623        -0.79389         1.00171
C          0.10473        -1.51067         0.67145
C          1.05877        -0.87008        -0.29981
C          2.31044        -1.63609        -0.66192
C          3.56861        -0.88541        -1.06347
C          4.92098        -1.61678        -1.11738
C          6.21647        -0.89576        -0.81760
C          7.62477        -1.53985        -0.75521
C          8.49723        -0.95815         0.35629
C          9.61732        -1.76460         0.89295
C         10.36274        -1.16975         2.02842
C         -9.75168        -2.97484        -0.46609
C         -8.67802        -3.81113         0.22581
C         -7.33264        -3.05602         0.21278
C         -6.26271        -3.79745         0.99926
C         -4.99050        -3.03078         1.20355
C         -3.67469        -3.77976         1.26611
C         -2.39508        -3.03948         0.85555
C         -1.10013        -3.73923         1.27164
C          0.16945        -2.99979         0.98972
C          1.46243        -3.73175         0.74452
C          2.53167        -3.01379        -0.05763
C          3.64712        -3.83133        -0.66623
C          4.85611        -3.13242        -1.34626
C          6.23959        -3.81807        -1.12310
C          7.54329        -3.08342        -0.86501
C          8.85028        -3.86973        -0.56220
C          9.74774        -3.20392         0.50628
C         -8.48358        -5.20447        -0.41244
C         -7.21688        -5.94978         0.00821
C         -6.19993        -5.29728         0.89404
C         -4.86241        -5.95041         1.02110
C         -3.68355        -5.26196         1.12352
C         -2.34545        -5.96198         0.86262
C         -1.08747        -5.25136         1.35920
C          0.23776        -5.99998         1.34988
C          1.46492        -5.24049         0.88852
C          2.58445        -5.91302         0.50505
C          3.73248        -5.24577        -0.19242
C          5.10744        -5.90960        -0.04957
C          6.18232        -5.33522        -0.97537
C          7.49091        -6.01393        -0.60116
C          8.62682        -5.33868        -0.30380
C         -6.98374        -7.18190        -0.50933
C         -5.91965        -8.06082         0.03731
C         -4.87907        -7.42585         0.92121
C         -3.61288        -8.16748         1.20749
C         -2.33427        -7.41105         1.30037
C         -1.06819        -8.25534         1.10022
C          0.28096        -7.56905         1.44289
C          1.47413        -8.34026         0.66154
C          2.75663        -7.39831         0.70714
C          3.82102        -8.09091        -0.17746
C          5.00357        -7.30006        -0.66809
C          6.25413        -8.11898        -0.81949
C          7.45364        -7.47170        -0.71139
C         -5.52458        -9.32325        -0.63448
C         -4.44535       -10.03308        -0.26271
C         -3.56498        -9.67023         0.91419
C         -2.08422       -10.05405         0.70219
C         -1.21392        -9.12344        -0.11957
C         -0.18578        -9.47128        -0.93582
C          1.15667        -8.95739        -0.71284
C          2.18210        -9.55782        -1.39227
C          3.58226        -9.30600        -1.02609
C          4.75739        -9.81380        -1.78880
C          6.01788        -9.38619        -1.50185
O          2.02478         6.48959        -1.63674
O          1.36850         1.20370        -1.69593
O         -6.85537        -3.02294        -1.15987
H         -7.26283        -2.25306        -1.61515
O         -7.32568         1.00984         1.75213
O          5.71759        -0.99023        -2.17714
O          0.53586        -7.81022         2.81162
H          0.72952        -8.77612         2.88764
O         -8.30196         0.02028        -1.41255
O          5.55864         7.80010         1.01935
O          3.48802        -0.00127        -2.21851
O          1.17177        -1.57060        -1.56914
O         -2.53580        -1.54359         2.81596
H         -1.66306        -1.83280         3.17342
O          3.27043        -7.50436         2.04290
H          3.04728        -8.44766         2.29578
O         -0.35241        -3.17037         2.35636
O          0.71362         5.96302         2.09909
H          0.00886         6.24438         2.72589
O          3.58345         4.25975        -1.84108
O          1.80765        -9.42120         1.45127
O         -3.05643        -7.75213         2.50343
O          3.23175        -4.92102        -1.53292
O         -1.84069         5.95314         2.07508
O         -3.89709         4.44741         2.23517
O         -4.95343         3.28889        -0.96396
H         -4.43754         2.56324        -1.39409
O         -0.93890         1.85860        -1.10785
H         -0.26194         2.06811        -1.79781
O          4.73541        -6.89334        -2.07057
O         -9.23675        -0.51436         1.86554
O          7.81335         2.28746        -0.82630
O         -6.03117         5.84335         1.81485
O          5.76711        -5.85253        -2.30468
O          7.11529        -3.43453        -2.22070
O         -0.98319         9.01080        -2.56000
H         -0.33332         8.28402        -2.70098
O         -6.69771        -4.61964         2.09236
O         -2.27315        -3.10024        -0.58871
H         -3.01795        -2.58282        -0.99394
O         10.61815        -2.23476        -0.12230
O         -2.81534         6.25889        -1.50487
H         -1.95198         6.09164        -1.95317
O         -0.44019        -5.60734         2.59083
O         -1.72177         1.13974         2.18838
O         -4.13769        -1.39428        -0.44518
O          0.47959         2.54407         2.21924
H         -0.24228         2.05647         2.69215
O         -5.74702         8.27040         1.18769
O         -4.33085        -3.27200         2.46665
O          9.61816        -3.84958        -1.78236
H         10.03769        -2.95875        -1.83608
O          5.06079         5.39708         1.43387
O         -1.35274        -9.50474         1.88075
O          4.04045         7.77928        -2.23645
H          3.43764         7.07354        -2.57752
O          0.63596         4.16039        -1.06552
O         -7.35805         3.39434         1.74724
O         -6.02688        -8.10628         1.50568
O          5.41455         2.95572         1.82556
H          4.94295         3.72878         2.21053
O         -0.31148         6.90377        -1.31771
O          5.17021         0.62817         0.87559
O          5.50862        -5.88662         1.31496
H          4.85039        -6.40939         1.84079
O          1.54899         8.46178         1.39033
O          8.60008         7.60851         0.61319
H          8.19230         7.89342         1.45763
O          4.01709        -9.39441         0.40633
O         -4.03436       -10.39471         2.06247
H         -3.63763        -9.95881         2.84877
O         -0.02051        -0.84054         1.95362
O          4.56947        -3.27731        -2.74458
H          5.35932        -2.95700        -3.23445
O          2.94909         2.51989         1.35779
H          2.18917         2.34516         1.96831
O          2.58774        -3.03807         1.39939
O          7.73178         3.48693         2.69835
H          8.35147         4.01529         3.24252
O          8.30173        -1.11140        -1.95549
H          7.80131        -1.49608        -2.71124
O         -9.63523        -5.97945        -0.05178
H         -9.38553        -6.92529        -0.00587
O         -4.31110         0.97190        -0.57583
O         -2.20300        -5.98576        -0.59251
H         -2.21945        -5.04757        -0.90948
O          3.84653         9.77247         0.83535
H          3.04705         9.38501         1.26847
O         -8.29898         7.70008        -1.42845
H         -7.85197         7.26319        -2.18203
O          5.66218         3.02056        -1.80221
H          5.05078         2.81388        -2.54022
O         -9.10716        -3.96508         1.58284
H         -9.67364        -4.76849         1.61098
O         -8.19069         3.22197        -1.85224
H         -8.87968         3.48635        -2.49737
H         11.04738        -1.81664         2.59619
H         11.01681         0.61857         2.97920
H         10.29782         2.82932         2.28096
H          9.50383         5.19348         0.75331
H          8.00552         6.78631        -1.17641
H          7.32540         9.51038        -1.25667
H          5.31993        10.85538        -1.55619
H          2.89745        10.78400        -2.08409
H         -0.14386        10.76828         0.13150
H         -2.48071        10.92486        -1.39790
H         -4.81770        10.89876        -1.55372
H         -6.99815         9.77672        -1.40341
H         -8.25913         7.73309         0.62270
H         -9.53183         5.59716        -0.87115
H        -10.93681         3.36547        -0.27226
H        -12.07578         0.99908        -0.70748
H        -11.95587        -1.36969        -0.71266
H        -10.48140        -3.46261        -1.13273
H         -8.45778        -5.08335        -1.53670
H         -7.68436        -7.61494        -1.24217
H         -6.13444        -9.65653        -1.48864
H         -4.20801       -10.96769        -0.79458
H         -1.92720       -11.14969         0.57237
H         -0.29938       -10.31827        -1.63208
H          1.97453       -10.17974        -2.27642
H          4.60728       -10.68607        -2.44280
H          6.88387        -9.89954        -1.94590
H          8.40145        -8.01129        -0.85907
H          9.53753        -5.91757        -0.07990
H         10.27943        -3.89334         1.20194
