         278
 CSIRO Nanostructure Databank - Neutral Graphene Oxide Data Set
C        -10.96454         0.56899         0.14600
C         -9.65266         1.28897        -0.06072
C         -8.63861         0.51099        -0.91508
C         -7.35996         1.23553        -1.21349
C         -6.13319         0.50612        -0.69613
C         -5.02357         1.31512        -0.07374
C         -3.79633         0.64482         0.50768
C         -2.62640         1.47489         0.96774
C         -1.31039         0.76982         1.28554
C          0.06507         1.47460         1.19910
C          1.01261         0.92248         0.10909
C          2.40151         1.56664         0.34617
C          3.65592         0.78261         0.20237
C          4.94969         1.50990         0.09840
C          6.09759         0.82894        -0.20990
C          7.39005         1.47755         0.11330
C          8.66076         0.72315         0.02027
C          9.99382         1.46111         0.13068
C         10.94144         0.50631         0.84307
C         -9.76783         2.73235        -0.47716
C         -8.67864         3.42130        -0.87255
C         -7.37203         2.74266        -1.07906
C         -6.14261         3.52020        -0.74155
C         -4.83407         2.75583        -0.55500
C         -3.77337         3.55451         0.18190
C         -2.64170         2.92775         0.65669
C         -1.32935         3.59453         0.46442
C         -0.06529         2.98239         0.97643
C          1.21783         3.68684         0.74056
C          2.47255         2.88683         0.64459
C          3.76217         3.65497         0.91052
C          5.01248         2.91458         0.47503
C          6.18305         3.60924         0.40413
C          7.48286         2.98107         0.02680
C          8.66886         3.58030         0.76153
C          9.82679         2.79526         0.84453
C         -8.70642         4.89266        -1.24238
C         -7.45265         5.65016        -0.81482
C         -6.36602         4.88853        -0.03816
C         -5.04944         5.67599         0.05352
C         -3.85025         5.01347         0.09671
C         -2.58715         5.76738         0.36652
C         -1.32036         5.03478         0.05172
C         -0.02803         5.80278        -0.04426
C          1.24289         5.07408         0.17885
C          2.46567         5.85997         0.58346
C          3.69610         5.00967         0.12780
C          4.98460         5.81956         0.25282
C          6.23746         5.08153         0.47157
C          7.35930         5.76588         1.22809
C          8.61377         4.91704         1.20622
C         -7.36204         6.97532        -1.04998
C         -6.30088         7.83585        -0.46909
C         -5.10881         7.15656         0.19486
C         -3.85286         7.98666         0.39348
C         -2.55814         7.25057         0.57645
C         -1.25391         8.02101         0.46481
C          0.01521         7.28046         0.18075
C          1.22539         8.04119        -0.39194
C          2.53126         7.23387        -0.09372
C          3.80818         7.96772         0.01669
C          4.95618         7.25948         0.79512
C          6.29736         7.94511         0.60686
C          7.44444         7.22980         0.79032
C         -6.10445         9.19762        -1.01215
C         -4.97859         9.91763        -0.83461
C         -3.80506         9.42137        -0.07251
C         -2.48854        10.15640        -0.33248
C         -1.22607         9.47505         0.16198
C         -0.02826        10.13305         0.20545
C          1.28029         9.45861         0.21197
C          2.47952        10.07807         0.38589
C          3.78113         9.48733        -0.17800
C          5.08730        10.10072         0.27532
C          6.22807         9.40206         0.48739
C        -11.02752        -0.76801         0.23039
C         -9.90196        -1.63600        -0.20808
C         -8.66955        -1.00390        -0.78878
C         -7.36403        -1.79107        -1.09421
C         -6.05351        -1.00542        -0.77253
C         -4.82900        -1.62772        -0.14743
C         -3.53251        -0.81817         0.15529
C         -2.64975        -1.48007         1.24671
C         -1.30047        -0.72951         1.31086
C          0.04264        -1.43010         0.97760
C          1.02266        -0.61622         0.08091
C          2.27599        -1.35308        -0.27653
C          3.59980        -0.65000        -0.22119
C          4.76961        -1.25926        -0.95779
C          6.07231        -0.51397        -0.85386
C          7.36791        -1.27123        -1.05614
C          8.65809        -0.63752        -0.58996
C          9.83427        -1.53807        -0.07192
C         10.81731        -0.83503         0.79568
C         -9.89300        -3.09422         0.09950
C         -8.74157        -3.77737        -0.02040
C         -7.41645        -3.23532        -0.48777
C         -6.32348        -3.65018         0.49181
C         -5.02930        -2.91411         0.61221
C         -3.81757        -3.65220         1.11563
C         -2.51281        -2.95738         0.99005
C         -1.34767        -3.61330         0.77359
C         -0.11982        -2.85453         0.44281
C          1.12236        -3.61368         0.11252
C          2.41083        -2.83008        -0.00032
C          3.62609        -3.52226        -0.54407
C          4.65331        -2.73530        -1.40530
C          6.02570        -3.50090        -1.49288
C          7.33993        -2.75633        -1.31628
C          8.64716        -3.57923        -1.05687
C          9.49646        -2.93035         0.01787
C         -8.35607        -5.12352        -0.59354
C         -7.47168        -5.95905         0.29643
C         -6.35509        -5.14081         0.92459
C         -5.03784        -5.88123         0.63451
C         -3.82858        -5.13308         1.16144
C         -2.49429        -5.83180         1.15867
C         -1.31437        -5.09468         0.63019
C         -0.04711        -5.88382         0.51334
C          1.27195        -5.09563         0.45398
C          2.22461        -5.75728        -0.54035
C          3.49000        -4.98461        -0.89401
C          4.71231        -5.73179        -1.31434
C          6.03602        -5.00727        -1.43419
C          7.28042        -5.73860        -1.06101
C          8.41851        -5.05871        -0.80910
C         -7.42425        -7.31318         0.30028
C         -6.42293        -8.04318         1.17573
C         -5.08393        -7.30237         1.19530
C         -3.78756        -8.03132         1.28401
C         -2.46621        -7.31655         1.16134
C         -1.23632        -8.20614         1.03174
C          0.10240        -7.38739         0.91312
C          0.90989        -8.03951        -0.29839
C          2.15549        -7.23928        -0.74212
C          3.50635        -7.97663        -0.70191
C          4.69120        -7.23573        -1.34938
C          5.98425        -7.97394        -1.37981
C          7.31023        -7.27457        -1.08911
C         -6.22651        -9.54344         1.03215
C         -5.03929       -10.18094         1.10034
C         -3.71959        -9.47508         0.85249
C         -2.32349       -10.03168         1.30035
C         -1.25709        -9.55713         0.33328
C         -0.12892       -10.24124         0.02414
C          1.20717        -9.52656        -0.02047
C          2.27814       -10.12118        -0.91218
C          3.43934        -9.43794        -1.11177
C          4.72217       -10.10750        -1.31042
C          5.90744        -9.45477        -1.23763
O          0.56487         3.71726         2.07636
O          1.28901        -1.04308        -1.29414
O          7.96480         0.82411         1.30855
O          0.80633        -7.44081         2.14462
H          1.11278        -8.38325         2.26056
O         -6.46407        -5.10309         2.44137
H         -6.26280        -4.11123         2.66009
O         -4.03533         9.09641         1.32544
O          3.79389        -8.02834         0.69925
O         -4.91767        -5.98630        -0.79666
H         -5.60929        -5.45017        -1.25337
O          1.72744        -6.32669        -1.79162
O         -7.38912        -4.38281        -1.47066
O         -5.01626        -1.63794        -1.58569
O          0.22049        -3.20787        -0.94330
O         -1.30736         0.03177         2.54820
O          5.91573         5.65608        -0.86153
O          3.52854        -3.18737         0.86254
O          4.10965        -2.64360        -2.71931
H          4.26777        -3.50797        -3.17119
O          7.80354         3.31608        -1.40937
O         -9.72424        -1.50990        -1.68664
O          3.46784         7.25673        -1.21324
O         -2.23890        -6.52118         2.39717
O         -0.30928         7.66297         1.53816
O         -4.22963         2.57112        -1.86580
H         -4.84998         2.93795        -2.54025
O         -6.59208         3.45328        -2.13052
O         -6.11616        -2.78365         1.63731
O         -6.16717         0.95591         0.73674
O         -2.71488        -0.82207        -1.02500
H         -3.29824        -0.86020        -1.81905
O         10.51559         1.77581        -1.17695
H          9.85106         2.32853        -1.64684
O         -4.08726        -4.36824         2.37567
O          5.24089        -0.44235        -2.06014
O          9.76124        -0.93542        -1.42716
O          4.70920         7.21922         2.17648
O          6.12984        -4.29742        -2.71237
O          0.49936         1.38472        -1.14413
H          0.82255         0.77561        -1.84828
O         -2.56253         6.34202         1.71996
O         -3.67119         1.04106         1.90040
O          6.96013         5.79075         2.62808
H          6.11683         6.34838         2.68129
O         -1.34082         4.01326        -0.96752
O          3.78635        -5.19364        -2.30589
O          3.84607        -0.32209         1.18339
O          7.51912        -1.80727        -2.40639
O         -4.48029        -7.59607         2.49124
O          1.90658        -5.09923         1.73753
H          1.83768        -6.00804         2.12657
O         -6.91207         4.63468         1.21880
O          3.69298         9.74801        -1.59436
H          2.96532         9.16801        -1.94446
O         -0.86803        -5.63948        -0.65942
O          1.15262         8.22559        -1.75760
O          1.78850        -9.66727         1.31665
H          2.68322        -9.19155         1.26477
O          3.50635         4.60963        -1.23029
H          3.48875         5.42583        -1.78448
O         -8.24002         0.82771        -2.29121
O         -6.21477         7.66849         0.98091
O          2.40394         6.02268         1.99996
H          3.19845         6.57519         2.29655
O          0.78966         5.33136        -1.16368
O         -3.33700        -1.41855         2.49800
H         -2.96898        -0.64613         2.99743
O          0.73561        -1.60255         2.22636
H          0.72090        -0.73400         2.70057
O          0.74693         1.24057         2.43871
H          0.83227         2.11262         2.89963
O         -1.64866        -9.10992         2.26519
O         -7.79530        -5.40446         2.86820
H         -7.75591        -6.42668         2.89162
O          5.25918        -7.64091        -2.63019
O         -3.66347        -9.37609        -0.60399
H         -3.37568       -10.23642        -0.97517
O         -9.05161         1.26102         1.27545
H         -8.40664         1.99775         1.36408
O         -2.37863        10.28398        -1.76139
H         -1.45677        10.52697        -1.98845
O          8.28974        -7.69404        -2.04467
H          7.96253        -7.44674        -2.93508
O          6.58281         3.20277        -2.17642
H          6.15553         4.09508        -2.04202
O         -7.31540        -1.93793        -2.51211
H         -8.24052        -1.97255        -2.84569
O         -0.00415        -8.05214        -1.40664
H          0.15117        -7.22337        -1.92462
O         -6.98439        -7.89378         2.53639
H         -6.22928        -8.09859         3.14512
O         -8.86594         5.00523        -2.66340
H         -8.11758         4.51900        -3.07599
O          3.88291         3.87563         2.31870
H          3.15361         4.48868         2.59509
O          9.43794        -3.52965        -2.26714
H          9.18416        -2.70366        -2.74756
H         11.50664        -1.46590         1.37750
H         11.73429         0.94572         1.46786
H         10.72865         3.23242         1.30352
H          9.50788         5.32522         1.70648
H          8.42576         7.73063         0.77186
H          7.16057         9.96086         0.67124
H          5.13878        11.20088         0.26278
H          2.50724        11.12485         0.73113
H         -0.02173        11.22805         0.06810
H         -2.56022        11.18773         0.12380
H         -4.88216        10.90015        -1.31948
H         -6.91283         9.60524        -1.63911
H         -8.16028         7.47346        -1.62493
H         -9.60392         5.37088        -0.77369
H        -10.73001         3.24724        -0.33328
H        -11.84458         1.17728         0.40344
H        -11.97084        -1.27106         0.49256
H        -10.85695        -3.61314         0.21785
H         -9.11153        -5.70535        -1.16543
H         -8.18797        -7.88470        -0.24967
H         -7.14996       -10.14178         1.09087
H         -5.03711       -11.28330         1.11257
H         -2.32084       -11.08987         1.64791
H         -0.15490       -11.33976        -0.05896
H          2.24855       -11.20965        -1.08593
H          4.71079       -11.20845        -1.34382
H          6.85233       -10.01862        -1.24282
H          7.66401        -7.63746        -0.08743
H          9.33332        -5.63428        -0.59617
H          9.90968        -3.52949         0.84351
