         324
 CSIRO Nanostructure Databank - Neutral Graphene Oxide Data Set
C          1.56205         2.34807         2.59770
C          1.50511         3.72929         2.35049
C          2.70939         1.62821         2.30731
C          2.62164         4.41306         1.84655
C          1.49565         6.74400         1.92973
C          1.51442         8.07008         1.64340
C          2.49676         5.82393         1.36741
C          2.53812         8.69632         0.82644
C          1.42223        10.94231         0.92316
C          1.37096        12.25077         0.50536
C          2.46619        10.09225         0.47933
C          2.39336        12.84382        -0.29193
C          1.13721        15.03371        -0.17774
C          1.07660        16.38660        -0.16324
C          2.34113        14.29361        -0.52760
C          2.19418        17.19745        -0.66003
C          2.31941        18.60830        -0.22661
C          3.86116         2.28915         1.79828
C          3.81242         3.70044         1.59576
C          5.04601         1.56554         1.50175
C          5.05104         4.39397         1.18881
C          3.64773         6.47305         0.64617
C          3.64691         7.92944         0.42363
C          4.99739         5.84058         0.67457
C          4.65591         8.45968        -0.43065
C          3.43936        10.64189        -0.40895
C          3.47115        12.04742        -0.73390
C          4.35371         9.70256        -0.97117
C          4.67766        12.72419        -1.33588
C          3.47391        14.97856        -0.92225
C          3.44321        16.44970        -1.07869
C          4.71409        14.24660        -1.29012
C          4.74370        17.20424        -1.06413
C          3.51622        19.23257        -0.16776
C          4.76977        18.56728        -0.48422
C          6.21029         2.19524         0.99848
C          6.21977         3.61873         0.79617
C          7.39194         1.46448         0.75917
C          7.35434         4.28669         0.30431
C          6.09471         6.38719        -0.12818
C          5.82196         7.62291        -1.00376
C          7.30460         5.68114        -0.12941
C          7.18132         8.41147        -1.30066
C          6.13894        10.70521        -1.58631
C          6.02668        12.06667        -1.29921
C          7.27620         9.91953        -1.32494
C          7.23165        12.76871        -1.07535
C          6.01804        14.92591        -1.08046
C          6.04483        16.40425        -1.03227
C          7.21379        14.20933        -0.93559
C          7.22054        17.07549        -0.48310
C          5.96961        19.17934        -0.22089
C          7.22573        18.46495        -0.24552
C          8.58551         2.12665         0.39444
C          8.56285         3.54259         0.14256
C          9.80638         1.41564         0.30036
C          9.77505         4.21561        -0.17126
C          8.53016         6.30074        -0.57291
C          8.48749         7.69605        -1.06927
C          9.75791         5.63677        -0.47909
C          9.76525         8.44724        -1.04505
C          8.48369        10.62529        -1.17908
C          8.47202        12.05200        -1.08705
C          9.77032         9.89642        -1.49165
C          9.71273        12.77330        -0.96505
C          8.45990        14.87309        -0.66262
C          8.41747        16.27823        -0.23119
C          9.69177        14.19101        -0.72492
C          9.73573        17.04101        -0.07385
C          8.43788        19.15850         0.00721
C          9.70168        18.52256        -0.07489
C         11.02183         2.08886         0.08930
C         10.98600         3.50511        -0.12030
C         12.26300         1.36972         0.04710
C         12.24273         4.25935        -0.16023
C         11.00612         6.32985        -0.74050
C         10.95161         7.76021        -0.98635
C         12.23735         5.65042        -0.65850
C         12.21123         8.47523        -1.32961
C         11.00658        10.65888        -1.08086
C         10.94994        12.04493        -0.93400
C         12.26028         9.95344        -1.10731
C         12.19285        12.80496        -0.66610
C         10.93521        14.95503        -0.65290
C         10.95209        16.31348        -0.45404
C         12.21315        14.26293        -1.08498
C         12.20753        17.08999        -0.63180
C         10.89400        19.23485        -0.06470
C         12.18365        18.59305        -0.34631
C         13.49645         2.00458        -0.10502
C         13.53538         3.48345        -0.10631
C         14.72658         1.31437        -0.19192
C         14.77088         4.15827        -0.53019
C         13.50155         6.25954        -0.94792
C         13.48729         7.67709        -1.40146
C         14.71618         5.54574        -0.86783
C         14.77442         8.45207        -1.41048
C         13.46776        10.62116        -0.95357
C         13.50826        12.06816        -0.67497
C         14.75184         9.93237        -1.18609
C         14.75532        12.85344        -0.87895
C         13.49217        14.97437        -0.67252
C         13.48688        16.35794        -0.49017
C         14.73591        14.23975        -0.74790
C         14.67768        17.10966        -0.19881
C         13.43507        19.23277         0.03892
C         14.65131        18.53801         0.04105
C         15.96750         1.99151        -0.30032
C         15.97374         3.43566        -0.50189
C         17.18144         1.27535        -0.19800
C         17.23128         4.13326        -0.56450
C         16.02398         6.22065        -1.04529
C         16.05849         7.70573        -1.18342
C         17.26466         5.51620        -0.63181
C         17.13411         8.41781        -0.38883
C         16.02439        10.61954        -0.83526
C         16.02394        12.10373        -0.99127
C         17.17456         9.91441        -0.64706
C         17.30286        12.84008        -0.65776
C         15.98447        15.02781        -0.56372
C         15.90185        16.42331        -0.07123
C         17.28758        14.30743        -0.38997
C         17.07680        17.09535         0.31364
C         15.88424        19.21749         0.27879
C         17.10144        18.52681         0.39337
C         18.45872         1.90149        -0.22254
C         18.48611         3.35355        -0.54493
C         19.65040         1.21108        -0.04600
C         19.76765         4.11383        -0.44322
C         18.48900         6.28694        -0.45039
C         18.45300         7.67780        -0.39964
C         19.75207         5.58567        -0.29157
C         19.64864         8.41300         0.03170
C         18.47994        10.61749        -0.53823
C         18.41674        12.03739        -0.08175
C         19.72508         9.88307        -0.20442
C         19.63410        12.71817         0.48229
C         18.26448        14.83619         0.65433
C         18.29219        16.35218         0.68999
C         19.63891        14.19325         0.53738
C         19.60609        17.08709         0.74699
C         18.36804        19.21223         0.46197
C         19.59001        18.54575         0.49863
C         20.93754         1.89830         0.19054
C         20.97099         3.41129         0.09575
C         22.23882         1.23757         0.13502
C         22.25913         4.11584        -0.05840
C         20.96101         6.22892        -0.07716
C         20.96233         7.67189         0.18190
C         22.23808         5.52815        -0.11513
C         22.21723         8.42186         0.10305
C         20.92097        10.60868         0.30340
C         20.92156        11.98419         0.47205
C         22.18760         9.87111         0.09868
C         22.12672        12.75633         0.61534
C         20.83788        14.88417         0.57711
C         20.86959        16.33196         0.61758
C         22.11228        14.15874         0.60165
C         22.07061        17.03162         0.57971
C         20.85360        19.19597         0.43215
C         22.05789        18.48523         0.52309
C         23.44737         1.95428         0.14840
C         23.47050         3.40829         0.02831
C         24.69029         1.27625         0.23133
C         24.70394         4.11919        -0.08775
C         23.47145         6.23443        -0.12180
C         23.46349         7.68776         0.18274
C         24.69538         5.54222        -0.20415
C         24.78966         8.46457         0.29179
C         23.48599        10.64639         0.23314
C         23.39274        12.00811         0.92435
C         24.73804         9.91498         0.31531
C         24.64931        12.80793         0.76431
C         23.34336        14.90384         0.63736
C         23.33641        16.32304         0.61638
C         24.61259        14.19885         0.67119
C         24.55294        17.06453         0.68782
C         23.30973        19.16995         0.55536
C         24.51247        18.49319         0.66585
C         25.92247         1.96406         0.16056
C         25.94030         3.38512        -0.03828
C         27.15687         1.26164         0.25898
C         27.17794         4.05145        -0.23987
C         25.96605         6.28724        -0.48444
C         26.04715         7.80457        -0.22394
C         27.20088         5.45201        -0.56736
C         27.31882         8.56915         0.05857
C         25.98055        10.71542         0.15174
C         25.91579        12.02804         0.99859
C         27.21306         9.92951         0.55945
C         27.17774        12.78563         0.67583
C         25.83203        14.97140         0.68070
C         25.81854        16.37060         0.73808
C         27.12657        14.28192         0.58921
C         27.07144        17.09793         0.74748
C         25.77613        19.30503         0.81687
C         27.06163        18.51902         0.69190
C         28.37962         1.91117         0.07562
C         28.39837         3.31293        -0.23697
C         29.63449         1.20483         0.15388
C         29.63930         3.94055        -0.56126
C         28.38774         5.96879        -1.05436
C         28.52675         8.14029        -0.49489
C         29.64308         5.29168        -1.01879
C         29.85324         8.68265        -0.34035
C         28.26671        10.63246         1.10666
C         28.44290        12.07835         1.02488
C         30.11754         9.75639         0.54816
C         29.64483        12.74967         1.04399
C         28.37030        15.00314         0.83164
C         28.33611        16.40748         0.80682
C         29.60845        14.24801         1.09269
C         29.57196        17.15207         0.71388
C         28.24975        19.22424         0.57016
C         29.51332        18.56405         0.52860
C         30.82300         1.82895        -0.10014
C         30.86511         3.21321        -0.49405
C         32.06288         3.86588        -0.84080
C         30.86804         5.91466        -1.38134
C         30.91964         8.35586        -1.23858
C         32.06457         5.19406        -1.28446
C         31.94794         9.28347        -1.43595
C         31.06885        10.76151         0.30093
C         31.01360        12.03257         1.18555
C         31.96309        10.51462        -0.74933
C         32.18233        12.92766         0.84715
C         30.90971        15.04364         1.01366
C         30.83225        16.49182         0.68014
C         32.14000        14.26215         0.74526
C         31.98826        17.24184         0.42906
C         30.70775        19.29332         0.30912
C         31.92409        18.63205         0.24545
O         12.82788        12.47928         0.59361
O         28.41038         7.25807        -1.57904
O         14.86850         9.35077        -2.54922
O         18.58875        12.11830         1.35890
O          5.39038         5.54148         2.05849
O          7.85056         7.80159        -2.45815
O          5.52811        17.04893        -2.27516
O         16.36735         6.90563        -2.34038
O         12.71102         7.95424        -2.61003
O         20.12861         8.05174         1.37057
O         29.31171         9.87481         1.69508
O         12.19924        18.01915        -1.74952
O         18.84946        16.77169         1.98992
O         30.30306        14.74928         2.30712
O         19.42244        10.28041        -1.60451
O         19.32185         3.62789        -1.74857
O         27.20939        13.39497        -0.63049
O          5.02612        10.07597        -2.13445
O          9.04384        16.48297         1.09140
O          2.59074         5.81426        -0.11931
O         24.19198         7.87739         1.49926
O         22.89055        10.49776        -1.09390
O         16.97917        12.52737        -2.03000
O         17.05591        15.03785        -1.61147
O          4.50752        13.50436        -2.55573
O         30.93986         7.18912        -2.00105
O         20.79972         2.80773         1.40005
O         12.98998         4.10290         1.11683
O         25.83243         7.28034        -1.56953
O          2.50192        16.95433        -2.07967
O         12.20152        14.23416        -2.54161
H         12.25316        15.15662        -2.87080
O         25.77475        20.41572        -0.09158
H         25.71243        20.06456        -1.00332
O         17.67483        14.43247         1.91771
H         18.12754        14.95600         2.61730
O          5.35992         7.12668        -2.27224
H          6.15676         6.98395        -2.83526
O         31.18657        11.63133         2.55829
H         30.45684        11.00628         2.77585
O         25.99304        11.65486         2.39096
H         25.08180        11.38943         2.67881
O         23.29243        11.61972         2.36328
H         23.00785        12.41388         2.86521
O         26.09263        11.10756        -1.23625
H         25.85086        10.34474        -1.80234
O          9.79740         9.84632        -2.95632
H          9.12169         9.18053        -3.23018
O         16.65096         8.29301         0.99880
H         17.37746         8.55559         1.60531
H          0.67578         1.83348         2.99402
H          0.56656         4.26975         2.53451
H          2.74161         0.54126         2.46728
H          0.73874         6.34929         2.62252
H          0.73069         8.70600         2.07755
H          0.63875        10.56653         1.59343
H          0.53941        12.86388         0.87180
H          0.24360        14.48106         0.13726
H          0.17844        16.89819         0.21331
H          1.40299        19.13703         0.07508
H          5.06515         0.48076         1.68272
H          3.57496        20.27602         0.17676
H          7.40482         0.37902         0.93418
H          5.97670        20.22006         0.13722
H          9.80801         0.32845         0.46534
H          8.40352        20.25178         0.12303
H         12.22904         0.27251         0.12108
H         10.87403        20.32522         0.08203
H         14.72688         0.21653        -0.11666
H         13.40806        20.28150         0.37000
H         17.13313         0.18962        -0.02367
H         15.87489        20.31488         0.35344
H         19.62654         0.11514         0.05658
H         18.36239        20.31075         0.39371
H         22.27267         0.13972         0.06763
H         20.88605        20.29141         0.33329
H         24.69576         0.18304         0.35435
H         23.31637        20.26916         0.52164
H         27.14008         0.17941         0.45563
H         25.76679        19.75575         1.85048
H         29.61691         0.13857         0.42300
H         28.21469        20.32033         0.48599
H         31.76850         1.27092        -0.03553
H         33.01213         3.31377        -0.78743
H         33.00855         5.67272        -1.57688
H         32.72539         9.07089        -2.18104
H         32.72794        11.25662        -1.01801
H         33.15118        12.42262         0.71454
H         33.06092        14.80693         0.48988
H         32.97130        16.75295         0.40275
H         30.65693        20.38310         0.17543
H         32.85003        19.19565         0.06673
