         630
 CSIRO Nanostructure Databank - Neutral Graphene Oxide Data Set
C         23.01541        27.55244        -0.21601
C         23.07399        28.84251        -0.62740
C         23.07512        31.62464        -1.59672
C         23.08345        32.97227        -1.50265
C         23.07763        35.91070        -1.41821
C         23.06093        37.27201        -1.28946
C         22.99255        40.19313        -0.91758
C         22.98049        41.54503        -0.89714
C         22.99446        44.46950        -0.41918
C         22.97540        45.80852        -0.05752
C         25.35161        24.83252         0.79755
C         24.21550        25.38828         0.35897
C         25.49729        27.39378        -0.45729
C         24.18307        26.64053        -0.47574
C         25.50365        28.76908        -0.94472
C         24.30644        29.45007        -1.08960
C         25.56954        31.61311        -1.34215
C         24.33799        30.82359        -1.73170
C         25.55129        33.02721        -1.31920
C         24.30773        33.74318        -1.40923
C         25.52709        35.88129        -1.19452
C         24.29669        35.15431        -1.34707
C         25.50979        37.29727        -1.05133
C         24.25893        38.02931        -1.07342
C         25.44235        40.17410        -0.69720
C         24.22935        39.43529        -0.93487
C         25.46490        41.56509        -0.65636
C         24.24053        42.34732        -1.08448
C         25.42704        44.42926        -0.27633
C         24.20446        43.75914        -0.52938
C         25.42672        45.82171         0.03853
C         24.18612        46.51516         0.15852
C         25.38625        48.58082         0.64512
C         24.18926        47.89692         0.48618
C         27.88214        23.25143         0.54059
C         27.89294        24.63371         0.40681
C         26.69329        25.51340         0.69884
C         27.95583        27.30437        -0.70192
C         26.66106        26.75044        -0.16616
C         27.97185        28.80693        -0.74881
C         26.77689        29.48037        -1.00176
C         28.00995        31.62561        -0.99094
C         26.77804        30.91468        -1.12302
C         28.00871        33.04866        -1.04792
C         26.77987        33.75114        -1.16733
C         28.00034        35.89502        -1.01179
C         26.77124        35.18060        -1.12385
C         27.98045        37.31701        -0.87443
C         26.72908        37.98164        -0.82371
C         27.98151        40.15374        -0.34000
C         26.66926        39.39700        -0.43912
C         27.93389        41.61541        -0.42615
C         26.69529        42.29519        -0.45383
C         27.90664        44.42388        -0.13344
C         26.68086        43.71817        -0.32687
C         27.89873        45.83775         0.10047
C         26.65846        46.53898         0.20808
C         27.91066        48.70328         0.72623
C         26.62522        47.93743         0.47500
C         27.90967        50.13408         0.24021
C         30.32481        23.14881         0.42164
C         29.07749        22.51318         0.49600
C         30.36601        24.57311         0.31610
C         29.14203        25.30286         0.21302
C         30.40533        27.37998        -0.14052
C         29.18525        26.68465        -0.10529
C         30.43603        28.79503        -0.41591
C         29.21504        29.50186        -0.66599
C         30.48198        31.62047        -0.77131
C         29.23456        30.91537        -0.80607
C         30.47866        33.04762        -0.87021
C         29.24843        33.76514        -0.97167
C         30.49214        35.89389        -1.02025
C         29.24759        35.18527        -0.99191
C         30.48682        37.35205        -1.03173
C         29.22112        38.05795        -0.85706
C         30.41581        40.23115        -0.79944
C         29.22430        39.45156        -0.69396
C         30.41460        41.60062        -0.53851
C         29.16114        42.32366        -0.37870
C         30.41365        44.40362         0.20656
C         29.14142        43.71567        -0.19227
C         30.39054        45.88327        -0.03516
C         29.14602        46.57951         0.11160
C         30.37179        48.74281        -0.10759
C         29.13049        47.97250         0.24093
C         30.36060        50.20851         0.26101
C         29.05917        50.83652         0.11834
C         32.84653        20.34601         0.07997
C         31.62638        21.02589         0.28145
C         32.81698        23.14559         0.51139
C         31.58312        22.41851         0.43492
C         32.84172        24.53951         0.42770
C         31.60672        25.26924         0.28115
C         32.86908        27.38778         0.08250
C         31.62582        26.67762         0.11516
C         32.88619        28.76245        -0.19009
C         31.67527        29.48528        -0.42004
C         32.95240        31.62908        -0.65172
C         31.70357        30.91021        -0.63457
C         32.94189        33.03049        -0.81528
C         31.71412        33.75554        -0.88896
C         32.97913        35.88566        -1.25024
C         31.70183        35.17675        -1.03529
C         32.96146        37.38936        -1.30542
C         31.66564        38.06828        -1.11883
C         32.93240        40.23549        -0.88456
C         31.65666        39.55926        -1.32650
C         32.90808        41.61637        -0.65015
C         31.66415        42.34364        -0.51814
C         32.89709        44.46872        -0.23735
C         31.66804        43.71665        -0.27358
C         32.88726        45.87023         0.00810
C         31.62335        46.58867         0.05278
C         32.85028        48.68049         0.55886
C         31.61840        47.97780         0.21151
C         32.82399        50.19033         0.67222
C         31.53793        50.90963         0.45272
C         32.80475        52.99845         0.69612
C         31.60974        52.34281         0.57605
C         35.36754        19.01411        -0.55521
C         35.32824        20.33281        -0.04532
C         34.06988        20.98693         0.20983
C         35.35132        23.12753         0.60998
C         34.07123        22.36570         0.82621
C         35.33545        24.54342         0.59751
C         34.09204        25.26830         0.46909
C         35.33586        27.39822         0.44047
C         34.10488        26.66221         0.30953
C         35.36053        28.79276         0.27256
C         34.20921        29.43117        -0.45707
C         35.38455        31.60443        -0.14559
C         34.18687        30.93039        -0.38267
C         35.50075        33.01603        -0.54646
C         34.22457        33.74642        -0.93895
C         35.43541        35.91896        -0.74057
C         34.24947        35.21477        -0.91804
C         35.44695        37.37349        -0.79846
C         34.21589        38.11144        -0.99339
C         35.40097        40.21880        -0.39364
C         34.15807        39.49509        -0.83901
C         35.35208        41.68130        -0.71871
C         34.15444        42.35909        -0.58939
C         35.35697        44.51056        -0.31344
C         34.13210        43.79754        -0.43591
C         35.35544        45.90417        -0.02323
C         34.11304        46.59155         0.09912
C         35.33131        48.72845         0.38572
C         34.13077        47.99663         0.34790
C         35.30138        50.17168         0.42337
C         34.11048        50.90439         0.50931
C         35.29666        53.06134         0.77047
C         34.08662        52.33740         0.62851
C         35.36502        54.40163         1.23762
C         37.80205        19.00899        -0.50859
C         36.56849        18.38276        -0.80916
C         37.78128        20.31445         0.03719
C         36.56298        20.99949         0.21989
C         37.80914        23.13605         0.60955
C         36.56875        22.42590         0.53471
C         37.80585        24.56265         0.75178
C         36.56306        25.25836         0.66929
C         37.75387        27.38496         0.94899
C         36.56034        26.68462         0.69847
C         37.67258        28.83674         1.19002
C         36.50180        29.55900         0.63583
C         37.69257        31.77098         0.82283
C         36.52658        30.94707         0.42465
C         37.81317        33.16961         0.35768
C         36.67612        33.82132        -0.17019
C         37.86113        35.95004        -0.11199
C         36.66319        35.22088        -0.37055
C         37.88987        37.36219        -0.34196
C         36.66832        38.05706        -0.63907
C         37.87497        40.18089        -0.87070
C         36.69283        39.50936        -0.72029
C         37.89798        41.66702        -1.00939
C         36.59825        42.42961        -0.90916
C         37.80578        44.48263        -0.19580
C         36.60357        43.83724        -0.48414
C         37.81508        45.88317         0.14313
C         36.58696        46.61190         0.14174
C         37.83632        48.72780         0.33568
C         36.59017        48.03028         0.29551
C         37.85522        50.17405         0.33907
C         36.56973        50.88309         0.20931
C         37.84268        53.06861         0.75199
C         36.56789        52.41572         0.41586
C         37.82908        54.43092         1.13991
C         36.56719        55.06435         1.37466
C         40.27353        16.54805        -1.95096
C         39.08773        17.12529        -1.52433
C         40.30283        18.98399        -0.49542
C         39.06427        18.35087        -0.82077
C         40.32022        20.31861         0.06189
C         39.04425        20.93304         0.58013
C         40.26102        23.15027         0.63293
C         39.05076        22.44567         0.54492
C         40.26960        24.56859         0.90595
C         39.01774        25.28013         0.94975
C         40.20498        27.43726         1.35333
C         38.99233        26.70819         1.11616
C         40.24820        28.84426         1.40396
C         38.96531        29.58525         1.45858
C         40.25206        31.77328         1.13899
C         38.96651        31.07584         1.30385
C         40.24594        33.16972         0.92723
C         39.02666        33.87255         0.56643
C         40.25691        36.02719         0.51910
C         39.05159        35.27987         0.30523
C         40.26569        37.45518         0.32954
C         39.10721        38.07723        -0.19488
C         40.44528        40.21602        -0.70354
C         39.15888        39.45365        -0.74769
C         40.46258        41.74399        -0.65681
C         39.09261        42.38983        -0.56310
C         40.17572        44.29014         0.51642
C         39.03225        43.71316        -0.19203
C         40.30970        45.79163         0.43720
C         39.03557        46.57026         0.36368
C         40.33522        48.69823         0.27343
C         39.04710        47.97840         0.38240
C         40.32948        50.22864         0.25011
C         39.03746        50.91938         0.40338
C         40.30439        53.03720         0.78626
C         39.05757        52.34398         0.63222
C         40.30268        54.44691         1.03165
C         39.07698        55.14452         1.24424
C         40.30531        57.24048         1.50633
C         39.11746        56.54561         1.50213
C         42.75727        16.59103        -2.08202
C         41.51100        17.15626        -1.64389
C         42.79772        18.89286        -0.44352
C         41.51151        18.34654        -0.87594
C         42.78812        20.32753         0.12153
C         41.50237        21.03318         0.20422
C         42.72988        23.16077         0.55869
C         41.52014        22.45578         0.48583
C         42.73338        24.57017         0.93740
C         41.47860        25.24444         1.13602
C         42.71502        27.41410         1.74313
C         41.40491        26.62310         1.77902
C         42.72347        28.88527         1.54770
C         41.46999        29.59102         1.45371
C         42.69396        31.75514         1.34549
C         41.47252        31.03748         1.31420
C         42.71573        33.17420         1.22110
C         41.47689        33.90738         1.00791
C         42.67096        36.09837         1.08315
C         41.44363        35.31712         0.87674
C         42.68235        37.53514         0.69990
C         41.49912        38.22772         0.52114
C         42.89596        40.32096         0.12605
C         41.49832        39.73277         0.28530
C         42.82408        41.79772         0.38854
C         41.30227        42.01913         0.61743
C         42.93318        44.59719         1.50031
C         41.00462        43.40212         1.14154
C         42.84165        45.92904         1.16516
C         41.58323        46.56416         0.71697
C         42.79219        48.76078         0.65509
C         41.58435        48.04278         0.66139
C         42.79761        50.21429         0.59993
C         41.58623        50.92997         0.55945
C         42.79464        53.06223         0.75400
C         41.55775        52.34462         0.71151
C         42.78701        54.48899         0.87456
C         41.54293        55.16596         1.06447
C         42.77123        57.28504         1.24363
C         41.53998        56.57309         1.27335
C         43.96291        17.19271        -1.80994
C         45.25511        19.06717        -0.76511
C         44.04685        18.37866        -1.02134
C         45.24464        20.41572        -0.24112
C         44.03206        21.08991         0.05573
C         45.22294        23.17614         0.44520
C         43.99546        22.48119         0.32567
C         45.20356        24.68203         0.46612
C         43.94527        25.25937         1.05420
C         45.22960        27.45858         1.20405
C         44.00593        26.67354         1.45903
C         45.20607        28.84800         1.38373
C         43.95090        29.55350         1.51522
C         45.24320        31.73218         1.41760
C         43.95409        31.03905         1.79178
C         45.22283        33.16221         1.29033
C         43.97007        33.85669         1.22555
C         45.26029        36.02460         0.94006
C         43.98598        35.32782         1.22122
C         45.26926        37.39357         0.74525
C         44.02676        38.10001         0.27471
C         45.26549        40.22905         0.78684
C         44.10222        39.57318         0.46857
C         45.21907        41.64893         1.17085
C         44.01264        42.44976         1.01469
C         45.36804        44.53165         1.23217
C         44.11547        43.81399         1.32107
C         45.29177        45.95670         1.03667
C         44.07362        46.64907         0.94363
C         45.28515        48.80447         0.66607
C         44.04880        48.06782         0.73295
C         45.27980        50.24929         0.62403
C         44.04273        50.93575         0.63612
C         45.26228        53.09723         0.55529
C         44.02978        52.36758         0.65032
C         45.24972        54.52151         0.59896
C         44.00692        55.22109         0.82373
C         43.96095        56.63325         1.00778
C         47.70479        19.15020        -0.86503
C         46.52425        18.48702        -1.08128
C         47.73792        20.48527        -0.35307
C         46.47266        21.11947        -0.07691
C         47.68732        23.09958         0.79042
C         46.43277        22.47335         0.34146
C         47.68503        24.58525         1.14430
C         46.45314        25.35301         0.96473
C         47.73156        27.43535         1.28821
C         46.47497        26.73570         1.10738
C         47.71198        28.87315         1.36622
C         46.46391        29.57142         1.37577
C         47.73273        31.70650         1.52750
C         46.44138        30.99991         1.41607
C         47.73633        33.21467         1.41884
C         46.45043        33.89337         1.20034
C         47.73650        35.97907         0.84791
C         46.48714        35.28759         0.99671
C         47.74058        37.38617         0.74473
C         46.51050        38.11130         0.74552
C         47.76766        40.23631         0.82941
C         46.52429        39.52335         0.82544
C         47.81637        41.65389         0.95511
C         46.60892        42.39943         1.31956
C         47.89087        44.57772         1.16059
C         46.57892        43.84292         1.16326
C         47.78738        45.94370         0.53878
C         46.50229        46.67422         0.64259
C         47.80348        48.84575         0.86357
C         46.50288        48.12779         0.62734
C         47.76386        50.28686         0.45353
C         46.52380        50.96516         0.49512
C         47.72366        53.11010         0.22432
C         46.50234        52.39825         0.40763
C         47.66725        54.53367         0.22184
C         46.48278        55.20884         0.42289
C         50.23431        20.57226        -0.46035
C         48.96065        21.17314        -0.13202
C         50.16155        23.15308         0.78163
C         48.97014        22.47680         0.46250
C         50.18877        24.55021         1.10893
C         48.97099        25.29131         1.14386
C         50.23088        27.37401         1.49809
C         48.94273        26.69886         1.27648
C         50.23944        28.87992         1.48866
C         48.95694        29.59383         1.33511
C         50.23294        31.71035         1.17080
C         48.99998        30.99020         1.29427
C         50.21991        33.14727         1.02460
C         48.99867        33.87861         1.04487
C         50.21610        35.97530         0.59108
C         48.98712        35.26693         0.82277
C         50.21059        37.38040         0.44996
C         48.97496        38.10362         0.59496
C         50.27535        40.24203         0.57942
C         48.96958        39.50386         0.60616
C         50.12545        41.66686         0.15202
C         49.00080        42.37315         0.56542
C         50.19674        44.51373         0.21976
C         49.04196        43.81703         0.55721
C         50.23370        45.97032         0.23558
C         49.04942        46.70940         0.43597
C         50.24258        48.80736         0.17334
C         49.03664        48.10364         0.41277
C         50.23241        50.25225         0.09735
C         48.98934        50.97151         0.21094
C         50.19339        53.05662        -0.23096
C         48.96452        52.39439         0.06122
C         51.40176        21.12550        -0.05780
C         52.72960        23.03326         1.07607
C         51.42194        22.37255         0.72865
C         52.76366        24.51396         1.45084
C         51.45548        25.25091         1.20199
C         52.72494        27.38631         1.12023
C         51.49053        26.63890         1.26395
C         52.70410        28.84044         1.05498
C         51.50557        29.56975         1.17678
C         52.71529        31.69301         0.97715
C         51.47510        30.99241         1.07282
C         52.69967        33.15272         1.01990
C         51.43825        33.86759         0.83789
C         52.67137        35.95109         0.19103
C         51.45830        35.25964         0.57198
C         52.62255        37.35660        -0.13306
C         51.41790        38.07640         0.10236
C         52.51474        40.14845        -0.59017
C         51.40418        39.48532        -0.06324
C         52.45235        41.59023        -0.91236
C         51.22616        42.37359        -0.50837
C         52.57056        44.45897        -0.49785
C         51.36356        43.81779        -0.27279
C         52.73979        45.88596         0.00405
C         51.44202        46.66414         0.02375
C         52.77138        48.77521        -0.02184
C         51.44285        48.06446        -0.00988
C         52.67379        50.23643        -0.37876
C         51.45001        50.94505        -0.20227
C         51.37449        52.36789        -0.37296
C         55.11639        23.12476         0.44638
C         53.98981        22.40335         0.63322
C         55.14185        24.56542         0.58230
C         53.96406        25.26072         0.88854
C         55.11231        27.41153         0.29235
C         53.92075        26.68351         0.86956
C         55.15172        28.87679         0.63134
C         53.94234        29.56367         0.84998
C         55.16819        31.71165         0.57865
C         53.93982        31.00010         0.87351
C         55.15135        33.07826         0.25530
C         54.01974        33.90484         0.59597
C         55.04724        35.88684        -0.51610
C         53.89719        35.26616         0.05857
C         55.00114        37.30587        -0.84657
C         53.77501        38.04596        -0.60366
C         54.83632        40.16099        -1.44273
C         53.71361        39.44168        -0.88104
C         54.83413        41.56123        -1.57229
C         53.69687        42.33461        -1.15692
C         54.90498        44.48815        -1.32347
C         53.70855        43.74056        -1.02561
C         54.97259        45.86006        -1.17440
C         53.83820        46.63822        -0.70503
C         54.93076        48.71812        -1.54115
C         53.84260        47.99909        -0.76416
C         54.98980        50.18175        -1.19570
C         53.90151        50.87237        -0.74845
C         57.64776        24.57532         0.44250
C         56.41227        25.26870         0.46339
C         57.64303        27.37475         0.50739
C         56.42129        26.68227         0.48077
C         57.66201        28.83947         0.68354
C         56.38176        29.58314         0.56373
C         57.67596        31.72823         0.40935
C         56.39881        30.97647         0.50812
C         57.60981        33.16022        -0.09794
C         56.26053        33.66352        -0.57488
C         57.41771        35.78568        -1.22198
C         56.24182        35.16596        -0.71571
C         57.28796        37.13581        -1.89975
C         56.09126        37.92781        -1.41589
C         57.26879        40.01822        -2.27426
C         55.99608        39.33579        -1.85598
C         57.28405        41.52034        -2.31568
C         56.01739        42.29836        -2.09719
C         57.36141        44.31906        -1.13644
C         56.12155        43.82810        -1.94403
C         57.44270        45.82273        -1.37272
C         56.24053        46.56406        -1.36815
C         57.50086        48.61718        -1.62072
C         56.26169        47.97506        -1.46382
C         58.84935        25.26194         0.39295
C         60.11606        27.39231         0.25821
C         58.87127        26.67154         0.42874
C         60.17236        28.74522         0.21699
C         58.99136        29.56897         0.53916
C         60.04829        31.70603        -0.24846
C         58.95378        31.01692         0.21741
C         59.98813        33.06425        -0.68272
C         58.80303        33.77449        -0.71242
C         59.82720        35.83666        -1.68630
C         58.65936        35.11563        -1.25583
C         59.80488        37.17621        -1.96691
C         58.58443        37.93260        -1.97590
C         59.74773        40.07023        -2.58356
C         58.57136        39.29745        -2.21580
C         59.77134        41.42739        -2.58867
C         58.60882        42.16831        -2.02947
C         59.90904        44.35701        -1.58865
C         58.66193        43.56469        -1.46349
C         59.90590        45.70592        -1.60439
C         58.67237        46.48076        -1.53499
C         58.68622        47.88490        -1.66216
O         51.40678        41.91791        -1.91109
O         43.55826        26.96975         2.85390
O         36.54747        51.81072        -0.92088
O         50.28297        28.13298         2.76317
O         45.87478        41.87118         2.46131
O         56.37011        39.46797        -3.30029
O         47.59288        23.54344         2.18969
O         56.48944        41.95989        -3.45578
O         40.12830        39.54868        -1.92560
O         41.00596        40.73242         1.40907
O         33.03025        36.59919        -2.55380
O         52.03946        22.22083         2.08689
O         53.59037        33.76664         1.98693
O         43.29586        35.89679         2.40693
O         43.08964        41.27997        -0.95661
O         47.80627        32.54991         2.73423
O         35.12604        33.18701        -1.96164
O         57.72870        32.89020         1.31972
O         38.09357        29.17333         2.55693
O         58.79445        42.39537        -0.57124
O         38.05228        31.70434         2.25052
O         41.22504        46.09222        -0.67830
O         42.86990        19.15686         0.99722
O         40.43323        49.45069        -0.98843
O         58.42756        29.26281         1.86445
O         47.02582        46.03124        -0.69229
O         32.77444        49.36427         1.88808
O         37.25398        42.17864        -2.22756
O         27.30148        39.64457         0.86698
O         41.87785        43.90384         2.10729
O         50.70629        40.34797         2.00560
H         49.92365        40.63254         2.52555
O         35.36945        40.17536         1.09344
H         34.50631        40.54758         1.37623
O         24.37974        42.53515        -2.54519
H         24.38337        41.64322        -2.95343
O         34.49043        29.14322        -1.89222
H         33.86687        29.68347        -2.42412
O         30.37131        48.79200        -1.60978
H         30.29333        47.86518        -1.92614
O         43.91162        31.12816         3.26832
H         44.01254        32.07351         3.51196
O         24.02816        26.18612        -1.86669
H         23.92722        26.98845        -2.42250
O         44.02316        37.85096        -1.18712
H         43.52989        38.58094        -1.62144
O         56.08000        33.13693        -1.93881
H         56.46627        33.78566        -2.56659
O         39.02275        20.58944         2.01657
H         39.86324        20.90858         2.40999
O         41.12550        26.33271         3.18695
H         42.00084        26.29080         3.64162
O         54.88583        27.38909        -1.17676
H         54.89380        26.44750        -1.45345
O         24.48110        30.54728        -3.17913
H         24.54414        31.41426        -3.63386
O         53.22393        48.74235         1.39773
H         52.54858        49.21763         1.92887
O         30.46653        44.26076         1.69043
H         30.39112        43.30293         1.89114
O         45.14940        25.05893        -0.98222
H         44.36677        24.60725        -1.36653
O         53.15251        45.77334         1.40411
H         53.33684        46.69397         1.71049
O         56.97901        36.80722        -3.30616
H         56.75135        37.67042        -3.73765
O         54.53745        48.67090        -2.95778
H         54.61329        47.73773        -3.25210
O         31.58917        39.72826        -2.79237
H         32.25305        39.12279        -3.18871
O         34.02618        22.13160         2.28764
H         33.22082        21.60065         2.46772
O         26.96779        26.03026         2.05273
H         26.21151        26.59877         2.31094
O         41.05907        42.31126        -1.82901
H         40.64152        41.89267        -2.61085
O         48.22149        44.81339         2.56924
H         48.23528        43.94663         3.02742
O         28.04489        48.78687         2.19588
H         28.16972        47.87373         2.53251
O         57.09029        44.13185         0.26760
H         57.64168        43.37849         0.58050
O         52.95196        24.56574         2.89553
H         52.41705        23.82832         3.27033
O         47.92728        48.86813         2.35015
H         47.20828        49.44191         2.69267
O         56.25747        44.41480        -3.26168
H         56.32970        43.67305        -3.91008
O         27.99175        26.86092        -2.11431
H         27.18383        27.21024        -2.54877
H         22.07574        27.13081         0.17069
H         22.17912        29.47538        -0.53811
H         22.11294        31.10549        -1.71338
H         22.12049        33.50118        -1.48436
H         22.12404        35.39082        -1.57837
H         22.09569        37.79175        -1.35226
H         22.03600        39.65381        -0.87215
H         22.01192        42.06398        -0.87858
H         22.03897        43.96997        -0.62802
H         22.01827        46.34220         0.03036
H         25.30411        23.90301         1.38651
H         23.25520        24.87385         0.52356
H         25.36088        49.64740         0.90822
H         23.23173        48.42337         0.60679
H         26.93469        22.71553         0.69240
H         26.94702        50.64511         0.09251
H         29.01867        21.41992         0.58747
H         29.00828        51.91216        -0.11082
H         32.79596        19.28852        -0.21405
H         30.69416        20.45322         0.18786
H         32.78933        54.09415         0.77745
H         30.68020        52.92869         0.55726
H         34.43494        18.47863        -0.77532
H         34.43925        54.93562         1.49254
H         36.54436        17.36622        -1.22123
H         36.54445        56.10799         1.71492
H         40.25663        15.61019        -2.52387
H         38.14837        16.61877        -1.77989
H         40.30962        58.32564         1.68349
H         38.18359        57.09605         1.67677
H         42.72958        15.67066        -2.68281
H         42.76098        58.37307         1.40247
H         44.88122        16.74812        -2.21784
H         44.88965        57.21887         0.98423
H         48.64400        18.62803        -1.08897
H         46.56163        17.45977        -1.46839
H         48.58650        55.11799         0.08149
H         46.50170        56.30691         0.42903
H         50.26090        19.63159        -1.02613
H         50.20534        54.14662        -0.36669
H         52.34849        20.61701        -0.28307
H         52.28503        52.93228        -0.61459
H         56.03274        22.59982         0.14726
H         54.01592        21.31124         0.52166
H         55.88919        50.74937        -1.47495
H         53.97513        51.96929        -0.68740
H         57.67112        23.47835         0.45975
H         57.55213        49.70983        -1.72318
H         59.79760        24.70816         0.34182
H         61.02528        26.80071         0.07402
H         61.12389        29.24256        -0.01823
H         61.01415        31.19169        -0.35055
H         60.91463        33.50400        -1.07591
H         60.79508        35.31808        -1.70381
H         60.75555        37.68949        -2.16767
H         60.65207        39.52623        -2.89309
H         60.68308        41.96883        -2.87751
H         60.85627        43.80168        -1.64440
H         60.85474        46.25564        -1.69374
H         59.64531        48.40497        -1.79927
