         424
 CSIRO Nanostructure Databank - Neutral Graphene Oxide Data Set
C          1.42926         3.37904        -0.81572
C          0.21769         3.96218        -0.48658
C          1.30050         6.12681        -0.14158
C          0.14467         5.32855        -0.17027
C          1.24019         7.55233         0.12545
C          0.07760         8.27578        -0.04538
C          1.18022        10.43008         0.39602
C          0.03315         9.67811         0.11749
C          1.14285        11.87229         0.46223
C          0.03996        12.61183         0.04766
C          1.18383        14.75768         0.41566
C          0.02965        14.01291         0.07719
C          1.19777        16.21085         0.34040
C         -0.00374        16.93918         0.14424
C          1.18402        19.06361         0.24716
C         -0.01246        18.31957         0.11943
C          1.18805        20.50836         0.18415
C         -0.01589        21.23990        -0.02841
C          1.18295        23.36321        -0.02430
C         -0.01738        22.61179        -0.13519
C          1.19349        24.80024        -0.15218
C         -0.00708        25.52248        -0.41825
C          1.19976        27.64289        -0.50182
C         -0.00155        26.88577        -0.59143
C          1.19577        29.06306        -0.72922
C          0.03996        29.82241        -0.94598
C          1.20018        31.99875        -0.88691
C          0.04323        31.22809        -1.04038
C          1.24764        33.43199        -0.99378
C          0.08491        34.21092        -1.19115
C          1.38368        36.25644        -1.53015
C          0.14478        35.57473        -1.44788
C          1.45658        37.66054        -1.77544
C          3.85956         3.58433        -1.20004
C          2.62360         4.15463        -0.81938
C          3.76551         6.32088        -0.45865
C          2.56364         5.53318        -0.44355
C          3.75189         7.68366         0.01687
C          2.48449         8.23361         0.64222
C          3.62320        10.46710         0.73473
C          2.43780         9.74698         0.57137
C          3.62370        11.88187         0.86656
C          2.30938        12.59355         1.08394
C          3.57729        14.77050         1.02026
C          2.36496        14.07064         0.77999
C          3.62735        16.21510         0.85167
C          2.40941        16.91861         0.50033
C          3.63525        19.07613         0.47706
C          2.41508        18.35571         0.40977
C          3.64334        20.49370         0.47393
C          2.40126        21.22219         0.32032
C          3.60831        23.39404         0.35209
C          2.39997        22.66034         0.22695
C          3.63395        24.79852         0.21918
C          2.40972        25.52347        -0.03031
C          3.63136        27.68898         0.00312
C          2.41738        26.95430        -0.18720
C          3.68292        29.07289        -0.19453
C          2.48833        29.76673        -0.71972
C          3.63233        32.01764        -0.11371
C          2.48450        31.27536        -0.76142
C          3.70473        33.40120        -0.71725
C          2.54292        34.09831        -1.02969
C          3.81550        36.22420        -1.34521
C          2.59690        35.52385        -1.33509
C          3.88761        37.63732        -1.55013
C          2.66156        38.32900        -1.78911
C          6.28483         3.77522        -1.60446
C          5.03514         4.35870        -1.24513
C          6.18280         6.61108        -1.09167
C          4.97325         5.74167        -0.87690
C          6.18191         7.86896        -0.26745
C          4.93945         8.40599         0.14917
C          6.15539        10.54507         0.74570
C          4.91474         9.70492         0.92478
C          6.10297        11.92960         0.98989
C          4.82484        12.60654         1.03874
C          5.99841        14.71660         1.60031
C          4.77444        14.02715         1.21828
C          6.01775        16.30030         1.51467
C          4.82476        16.92400         0.96695
C          6.13030        19.09295         0.89297
C          4.93712        18.31390         0.38989
C          6.09822        20.50945         0.83403
C          4.86723        21.19890         0.62146
C          6.10911        23.31820         0.22935
C          4.85771        22.69385         0.83051
C          6.10381        24.82474         0.36092
C          4.88154        25.50823         0.32565
C          6.12558        27.70016         0.18814
C          4.85055        26.99573         0.56849
C          6.14213        29.08380         0.05825
C          4.89996        29.81398        -0.06265
C          6.14983        31.91901        -0.09607
C          4.93515        31.23725        -0.15337
C          6.13901        33.41992         0.01024
C          5.02224        34.02741        -0.82762
C          6.27355        36.28305        -0.76063
C          5.07073        35.49622        -1.14552
C          6.35238        37.69519        -1.22134
C          5.14087        38.32074        -1.55361
C          8.74487         3.84946        -1.68880
C          7.50085         4.48414        -1.46224
C          8.67933         6.54436        -0.79026
C          7.48468         5.85970        -1.04957
C          8.65410         7.91014        -0.31660
C          7.40158         8.54306        -0.02051
C          8.61523        10.61881         0.59521
C          7.38704         9.89737         0.47355
C          8.59780        11.98764         1.01337
C          7.33060        12.67368         1.16388
C          8.49097        14.79438         1.83074
C          7.27882        14.03041         1.49877
C          8.50459        16.27178         1.67782
C          7.32849        16.97642         1.44012
C          8.49645        19.15155         1.56266
C          7.32588        18.42088         1.26099
C          8.52292        20.57203         1.40402
C          7.32016        21.25770         1.02619
C          8.53424        23.38623         0.91792
C          7.34803        22.65801         0.79552
C          8.56210        24.81666         0.63767
C          7.34372        25.49967         0.37071
C          8.62135        27.68426         0.35556
C          7.38876        26.93626        -0.06673
C          8.62087        29.10428         0.28168
C          7.39726        29.80668         0.04579
C          8.64218        31.93220         0.04377
C          7.40008        31.22177        -0.00908
C          8.66019        33.37874        -0.09819
C          7.47396        34.06221        -0.26604
C          8.80285        36.14025        -0.90442
C          7.50784        35.53261        -0.41947
C          8.80199        37.65118        -0.83803
C          7.60323        38.34517        -1.13027
C         11.19788         3.93639        -1.82290
C          9.96068         4.53909        -1.50377
C         11.15081         6.59172        -0.80208
C          9.93958         5.89548        -1.01112
C         11.12905         7.94914        -0.33631
C          9.87326         8.59688        -0.09365
C         11.08237        10.67021         0.50536
C          9.85502         9.96325         0.34404
C         11.05595        12.04284         0.89232
C          9.81759        12.67539         1.18797
C         11.05426        14.85733         1.53415
C          9.82512        14.05928         1.69333
C         10.99844        16.29227         1.75840
C          9.77085        16.95789         1.76693
C         11.00698        19.19381         2.12985
C          9.71969        18.42719         1.97238
C         11.01660        20.71794         2.05154
C          9.72906        21.31006         1.52263
C         10.99464        23.38635         1.16265
C          9.75194        22.69599         1.24319
C         11.00755        24.87247         1.27909
C          9.77263        25.53044         0.72451
C         11.05719        27.64410         0.72317
C          9.81577        26.95902         0.59924
C         11.06413        29.13146         0.93266
C          9.83492        29.83719         0.42405
C         11.15514        31.96729         0.02650
C          9.85258        31.22165         0.22883
C         11.10492        33.39096         0.59242
C          9.91881        34.11771         0.00793
C         11.24015        36.19439        -0.19912
C         10.00071        35.46013        -0.28995
C         11.23804        37.57824        -0.42147
C         10.03489        38.29052        -0.67272
C         13.63110         4.08291        -2.12701
C         12.41548         4.63731        -1.67731
C         13.61588         6.66075        -0.91717
C         12.40464         5.96927        -1.11333
C         13.60918         8.00697        -0.38770
C         12.34870         8.64609        -0.13311
C         13.55691        10.71549         0.48424
C         12.33264        10.00944         0.29254
C         13.51119        12.09995         0.76544
C         12.28674        12.77720         0.96660
C         13.50936        14.98263         1.14672
C         12.23080        14.20047         1.22378
C         13.45237        16.31285         1.84561
C         12.26204        17.01804         1.91512
C         13.46949        19.15946         1.73409
C         12.29560        18.47328         1.97114
C         13.55136        20.65342         1.51406
C         12.21220        21.29872         1.34306
C         13.45421        23.31953         0.63889
C         12.21267        22.65636         1.04474
C         13.46039        24.76371         0.58740
C         12.28106        25.51030         0.79658
C         13.53110        27.62539         0.56918
C         12.28800        26.92794         0.71564
C         13.55998        29.05868         0.52513
C         12.35604        29.80380         0.54512
C         13.62702        31.88398         0.46912
C         12.39569        31.20427         0.42999
C         13.65765        33.36309         0.78439
C         12.41609        34.11451         0.37862
C         13.74803        36.15501         0.00504
C         12.46529        35.46004         0.09378
C         13.77728        37.55764        -0.27353
C         12.51131        38.38299        -0.32638
C         16.04078         4.32259        -2.60973
C         14.83985         4.80969        -2.03943
C         16.06006         6.79376        -1.23326
C         14.84873         6.08161        -1.36785
C         16.12304         7.94984        -0.27023
C         14.81423         8.69066        -0.14478
C         16.06576        10.65394         0.69630
C         14.82941        10.02628         0.33657
C         15.99034        12.00115         1.23180
C         14.82348        12.85393         0.77355
C         15.94632        14.85718         1.81093
C         14.65727        14.10234         1.66134
C         15.99915        16.22688         1.84408
C         14.73883        16.97304         2.04808
C         15.97455        19.05936         1.26924
C         14.76420        18.49237         1.89832
C         15.80993        20.25244         0.50683
C         14.48947        21.02080         0.34159
C         15.71854        23.30872        -0.24294
C         14.58445        22.57744         0.24562
C         15.83990        24.73461        -0.05718
C         14.67998        25.46416         0.33178
C         15.97167        27.56701         0.18526
C         14.72815        26.88845         0.38049
C         16.01849        28.98721         0.25957
C         14.80806        29.73401         0.40014
C         16.10850        31.84357         0.41842
C         14.84391        31.15778         0.44930
C         16.12750        33.27694         0.39037
C         14.95085        34.02151         0.38512
C         16.21760        36.10437        -0.08716
C         14.95797        35.43815         0.13371
C         16.22710        37.50489        -0.39906
C         14.98418        38.20532        -0.46179
C         18.39401         4.67119        -3.28630
C         17.20719         5.09625        -2.59501
C         18.39925         7.17861        -1.93466
C         17.22375         6.34567        -1.88636
C         18.41808         8.45182        -1.27052
C         17.30097         8.86862        -0.47793
C         18.57226        10.82686         0.22969
C         17.32566        10.07560         0.24341
C         18.86187        11.84497         1.16474
C         16.99727        12.61416         1.93391
C         18.52496        14.81353         2.03274
C         17.12759        14.06927         2.11576
C         18.43762        16.18909         1.52144
C         17.25050        16.91767         1.61136
C         18.32494        18.87884         0.51357
C         17.17012        18.30920         1.15661
C         18.20826        20.15088        -0.12232
C         16.87762        20.59866        -0.29980
C         18.14175        23.17789        -0.84846
C         16.84115        22.68176        -0.85424
C         18.20638        24.68007        -0.99272
C         17.05056        25.40794        -0.34464
C         18.38759        27.50699        -0.29060
C         17.15142        26.81874        -0.15066
C         18.45801        28.90963        -0.08061
C         17.26463        29.67465         0.15717
C         18.58062        31.77366         0.10605
C         17.31412        31.09550         0.26664
C         18.65051        33.18934         0.11499
C         17.44720        33.99085         0.54009
C         18.66053        36.04919        -0.25654
C         17.43335        35.39646        -0.00739
C         18.66876        37.45782        -0.53616
C         17.45203        38.16193        -0.60104
C         19.49302         5.48029        -3.35216
C         20.61151         7.64703        -2.87488
C         19.50675         6.76646        -2.71186
C         20.60529         8.89802        -2.29632
C         19.52638         9.32400        -1.47391
C         20.60729        11.53522        -0.91791
C         19.57643        10.57395        -0.74836
C         20.66783        12.69272        -0.14763
C         19.79991        12.85819         0.95115
C         21.02971        14.94754         1.70332
C         19.86609        14.01741         1.96029
C         20.91491        16.17629         1.19312
C         19.59327        16.67869         0.66843
C         20.60698        18.80214        -0.27244
C         19.54852        18.16459         0.37179
C         20.53548        20.14725        -0.68567
C         19.34259        20.87891        -0.62594
C         20.54483        23.03798        -0.78250
C         19.32975        22.35288        -0.85829
C         20.64230        24.46431        -0.71376
C         19.54982        25.28708        -0.71443
C         20.88197        27.43864        -0.33647
C         19.61631        26.79917        -0.83452
C         20.92008        28.76928        -0.09252
C         19.72143        29.57828        -0.11173
C         20.99736        31.70301        -0.29261
C         19.77406        31.00635        -0.08668
C         21.03607        33.07947        -0.33964
C         19.86566        33.85677        -0.12863
C         21.09223        36.02097        -0.40454
C         19.90240        35.31967        -0.23564
C         21.09816        37.41793        -0.62925
C         19.91913        38.12314        -0.71769
O          5.38483        34.47696        -2.17066
O         14.87877        17.85177         3.20636
O          9.19539        14.26732         3.00228
O         17.84274        14.57284         3.28888
O          2.81664        30.51850        -1.95959
O         18.09897        11.85728         2.35684
O          5.83961        15.57985         2.76850
O         16.61758        21.41276        -1.40201
O         10.25245        18.77988         3.32182
O          6.73079        36.19293         0.65641
O         14.28084        13.60458         2.96620
H         14.25631        14.35805         3.59318
O         10.89963        33.25869         2.03773
H         10.61557        34.13131         2.38299
O         17.98315        24.89091        -2.47679
H         18.59520        24.27659        -2.93852
O         10.99572        29.29100         2.41247
H         11.85080        28.97564         2.77647
O          2.07880        12.51564         2.55686
H          2.72971        13.11684         2.97977
O          4.74159        27.13413         2.04086
H          4.72509        28.09471         2.24134
O          7.49045        26.83906        -1.56109
H          7.46579        27.75848        -1.90587
O          6.05733         7.07793        -2.50560
H          6.06988         6.27286        -3.06740
O         11.28382        32.15122        -1.41722
H         11.30861        31.26643        -1.83792
O          4.93482         9.29658         2.35130
H          4.91968        10.11737         2.88962
O          5.78235        33.73296         1.40662
H          6.01232        34.68931         1.53906
O         19.58909        27.05759        -2.28603
H         18.84758        26.50283        -2.64296
O         13.86899        20.54861        -0.87647
H         14.47717        20.77978        -1.61320
O          8.82456        35.80454        -2.33141
H          9.70125        36.06364        -2.68498
O         13.75157        15.34341        -0.26154
H         12.96291        15.83420        -0.57637
O         11.17902        21.18140         3.43987
H         10.62977        20.57319         3.99035
O          3.30021        32.18817         1.29770
H          4.04227        32.70554         1.69622
O          6.08702        23.02289        -1.19732
H          6.78207        23.56430        -1.62791
O         17.60793        34.14620         2.00337
H         16.75745        34.48765         2.35529
O         10.96665        25.14613         2.74120
H         10.80606        26.10884         2.84848
O         16.34589         7.32901         1.05612
H         17.20100         6.85029         1.01341
O         19.41147        16.01550        -0.63413
H         18.60707        16.39190        -1.05014
O          2.56207         7.87631         2.06322
H          3.39296         8.28964         2.41554
O         14.13975        21.22530         2.71466
H         13.43315        21.24648         3.39990
O          5.18367        18.12468        -1.06493
H          5.18524        19.01753        -1.47290
O          4.93810        22.92022         2.27061
H          4.12976        22.54996         2.68244
O         15.16910        13.19821        -0.58909
H         14.54524        13.89793        -0.89880
O         13.66306        33.40783         2.26911
H         12.75202        33.13814         2.54858
O         12.45036        39.23065         0.84210
H         12.40678        38.65307         1.63166
O         20.11965        13.43982         3.25039
H         19.25229        13.35117         3.71181
H          1.48119         2.31398        -1.08342
H         -0.70000         3.35747        -0.48127
H         -0.83069         5.76482         0.08546
H         -0.84409         7.76498        -0.36028
H         -0.93509        10.17962        -0.01436
H         -0.84911        12.10136        -0.34915
H         -0.88035        14.52714        -0.25739
H         -0.95911        16.40852         0.04214
H         -0.97456        18.83204        -0.00861
H         -0.97193        20.70953        -0.12484
H         -0.97446        23.11938        -0.31127
H         -0.96237        24.98938        -0.50621
H         -0.94917        27.39307        -0.81581
H         -0.93494        29.31964        -1.01287
H         -0.92430        31.72600        -1.19813
H         -0.90133        33.72755        -1.15073
H         -0.78669        36.14125        -1.59285
H          0.52110        38.21427        -1.94361
H          3.90216         2.51952        -1.47272
H          2.68797        39.41299        -1.97249
H          6.31308         2.71546        -1.89623
H          5.14754        39.38931        -1.81790
H          8.76241         2.80401        -2.03060
H          7.64656        39.43703        -1.26812
H         11.20972         2.91604        -2.23424
H         10.08527        39.38836        -0.73179
H         13.62970         3.09028        -2.60129
H         12.56728        39.07963        -1.20454
H         16.03857         3.34956        -3.12306
H         14.99379        39.28549        -0.66996
H         18.38718         3.69624        -3.79508
H         17.46080        39.24259        -0.80675
H         20.38348         5.16513        -3.91549
H         21.46743         7.32436        -3.48499
H         21.46769         9.56112        -2.44764
H         21.35911        11.38947        -1.70524
H         21.43118        13.45527        -0.35725
H         22.00771        14.58517         2.05453
H         21.80474        16.81484         1.08699
H         21.54724        18.25730        -0.43885
H         21.44704        20.59852        -1.10050
H         21.48554        22.48049        -0.68727
H         21.65318        24.88576        -0.60931
H         21.80934        26.84983        -0.29339
H         21.87610        29.24182         0.17619
H         21.92450        31.13870        -0.46020
H         21.99607        33.57343        -0.54038
H         22.05810        35.49907        -0.37253
H         22.06045        37.93377        -0.75500
H         19.92620        39.20443        -0.91652
