         429
 CSIRO Nanostructure Databank - Neutral Graphene Oxide Data Set
C          1.39672         3.64018         1.35124
C          0.08460         4.27107         0.99068
C          1.16357         6.12604        -0.23348
C         -0.01909         5.41309         0.29677
C          1.09941         7.64898        -0.48503
C         -0.11459         8.41081        -0.20007
C          1.16908        10.49548        -0.30018
C         -0.05895         9.76565        -0.12052
C          1.17850        11.91157        -0.25360
C         -0.05151        12.66880        -0.35467
C          1.10022        14.80061         0.05902
C         -0.08901        14.02313        -0.31487
C          1.14786        16.27554        -0.13615
C         -0.03499        16.98534        -0.42344
C          1.15149        19.10389        -0.35087
C         -0.03800        18.37197        -0.50005
C          1.12744        20.56966        -0.28517
C         -0.07505        21.29743        -0.15674
C          1.13899        23.40419         0.08040
C         -0.06968        22.67914        -0.01520
C          1.16290        24.86269         0.26720
C         -0.03240        25.60277         0.28339
C          1.16776        27.71877         0.45974
C         -0.03198        26.99275         0.34612
C          1.18499        29.19021         0.43811
C          0.00683        29.91980         0.13438
C          1.17442        32.05717         0.26563
C         -0.00097        31.30663         0.07380
C          1.16162        33.52070         0.24618
C         -0.04109        34.26753         0.20685
C          1.19363        36.36593         0.32333
C         -0.02211        35.65644         0.20373
C          1.24057        37.81486         0.25104
C          3.81641         3.65035         0.77326
C          2.59385         4.28921         0.69182
C          3.65811         6.20074        -0.43742
C          2.50223         5.54692         0.02305
C          3.56883         7.61060        -0.90929
C          2.36933         8.37991        -0.54380
C          3.65855        10.50097        -0.61816
C          2.40026         9.77659        -0.50010
C          3.65074        11.92493        -0.41659
C          2.41972        12.60044        -0.22738
C          3.68142        14.78395        -0.03097
C          2.41810        14.03860         0.06953
C          3.64486        16.24673         0.39343
C          2.36549        16.97115        -0.01447
C          3.62685        19.09555        -0.21558
C          2.37423        18.38475        -0.17481
C          3.59881        20.54391        -0.62814
C          2.34307        21.28858        -0.24649
C          3.64585        23.36459         0.30819
C          2.34851        22.68099        -0.03911
C          3.65291        24.87463         0.20413
C          2.39477        25.57616         0.39856
C          3.63330        27.69439         0.90317
C          2.37824        26.99185         0.55244
C          3.63981        29.22066         1.11896
C          2.37586        29.90514         0.63705
C          3.62906        32.02501         0.55307
C          2.39061        31.33090         0.51703
C          3.67190        33.46866         0.15655
C          2.38569        34.23411         0.32817
C          3.66253        36.39914         0.81360
C          2.40102        35.63705         0.42983
C          3.68933        37.85090         0.38455
C          2.41582        38.51057         0.22385
C          6.23295         3.57665         0.33085
C          4.99769         4.25741         0.26687
C          6.15318         6.23296        -0.64930
C          4.93365         5.58052        -0.28037
C          6.16550         7.60132        -1.32012
C          4.85598         8.38704        -1.18812
C          6.12698        10.54019        -0.74119
C          4.87594         9.82888        -0.84494
C          6.11661        11.96618        -0.51491
C          4.88727        12.65317        -0.38083
C          6.14052        14.80062         0.20402
C          4.85792        14.09362        -0.16882
C          6.09480        16.28795        -0.06589
C          4.90662        16.98924         0.01167
C          6.08701        19.18048        -0.26837
C          4.84910        18.43099        -0.16967
C          6.12191        20.56712        -0.38967
C          4.87301        21.29968        -0.35925
C          6.07378        23.42454        -0.55545
C          4.85334        22.66158        -0.25025
C          6.07460        24.92065        -0.41003
C          4.84554        25.56059         0.12363
C          6.21915        27.68421         0.51209
C          4.92590        26.93343         0.65242
C          6.17067        29.19520         0.50785
C          4.89312        29.92190         0.60329
C          6.11184        32.09591         0.41700
C          4.88366        31.32836         0.53331
C          6.16777        33.49433         0.53682
C          4.85500        34.20672         0.82379
C          6.18481        36.37972         0.55274
C          4.89273        35.66766         0.27570
C          6.16872        37.79774         0.52156
C          4.89720        38.49707         0.35324
C          8.66191         3.49658        -0.04371
C          7.41330         4.19735        -0.09310
C          8.62341         6.20643        -1.07239
C          7.36263         5.55551        -0.54839
C          8.58497         7.71137        -0.90404
C          7.39843         8.39945        -0.92686
C          8.61388        10.57081        -0.79727
C          7.36500         9.84654        -0.84829
C          8.60366        12.00293        -0.64582
C          7.37206        12.69939        -0.47624
C          8.59308        14.83850        -0.39169
C          7.39060        14.10609        -0.28776
C          8.55212        16.28890        -0.30421
C          7.35653        16.97529        -0.16487
C          8.62103        19.21426         0.05619
C          7.33185        18.44482         0.01635
C          8.63417        20.64515        -0.29018
C          7.37225        21.32330        -0.43357
C          8.56747        23.47610        -0.87252
C          7.34904        22.70387        -0.60319
C          8.60085        24.94249        -0.68137
C          7.37409        25.64786        -0.38952
C          8.55894        27.79281        -0.47338
C          7.37512        27.00666        -0.12455
C          8.63783        29.22384        -0.15776
C          7.33857        29.91026        -0.08675
C          8.64744        32.05744         0.16075
C          7.34339        31.41631        -0.01373
C          8.63173        33.38802         0.88181
C          7.38052        34.19908         0.58848
C          8.62115        36.37552         0.62565
C          7.40104        35.64923         0.59353
C          8.62912        37.79532         0.55926
C          7.39104        38.49049         0.52817
C         11.11298         3.46331        -0.00028
C          9.87974         4.14200        -0.24715
C         11.08585         6.25546        -0.46186
C          9.90050         5.55969        -0.55249
C         11.04932         7.76541        -0.37240
C          9.88678         8.41226        -1.14256
C         11.08583        10.59560        -0.78947
C          9.84439         9.89479        -0.87929
C         11.08479        12.01690        -0.66221
C          9.83935        12.71822        -0.61366
C         11.09722        14.82726        -0.48080
C          9.84287        14.14332        -0.52535
C         11.11129        16.30551        -0.49703
C          9.81337        17.04987        -0.42381
C         11.09540        19.17739        -0.05190
C          9.86878        18.47774        -0.10427
C         11.09655        20.63709        -0.07155
C          9.85307        21.30772        -0.36451
C         11.13286        23.48983        -0.46767
C          9.90967        22.72389        -0.74611
C         11.10879        24.90112        -0.54092
C          9.84485        25.59100        -0.65657
C         11.12464        27.80098        -0.52069
C          9.87729        27.05277        -0.74037
C         11.09749        29.20805        -0.40217
C          9.82948        29.92182        -0.26107
C         11.09799        32.08103        -0.01152
C          9.82871        31.35659        -0.00187
C         11.09661        33.44887         0.13579
C          9.92900        34.16752         0.68553
C         11.13063        36.39383         0.21993
C          9.91282        35.66329         0.65287
C         11.10799        37.85833         0.28293
C          9.87310        38.50501         0.47123
C         13.57302         3.45871         0.20544
C         12.32753         4.13723        -0.01449
C         13.57517         6.22856        -0.33766
C         12.34829         5.56655        -0.24750
C         13.59370         7.63408        -0.79684
C         12.32659         8.41808        -0.85170
C         13.54533        10.59691        -0.64639
C         12.33316         9.90383        -0.78857
C         13.55033        12.00408        -0.53260
C         12.32557        12.71446        -0.55594
C         13.58574        14.86577        -0.34605
C         12.32575        14.15045        -0.47560
C         13.58753        16.35290        -0.62743
C         12.35313        16.97775         0.05667
C         13.52810        19.18060         0.34237
C         12.30977        18.47427        -0.03203
C         13.52931        20.68611         0.40362
C         12.28358        21.36843         0.02501
C         13.56663        23.50139        -0.10503
C         12.32791        22.79420        -0.16936
C         13.56591        24.92042        -0.25749
C         12.33575        25.62949        -0.41974
C         13.57576        27.78101        -0.37509
C         12.34507        27.07175        -0.43922
C         13.57030        29.21174        -0.38576
C         12.33456        29.92406        -0.35372
C         13.56588        32.04521        -0.25101
C         12.34800        31.35722        -0.25589
C         13.54797        33.52910        -0.13504
C         12.23798        34.23232        -0.46133
C         13.48938        36.45947        -0.44450
C         12.26218        35.70669        -0.09900
C         13.56567        37.89643        -0.04328
C         12.32139        38.57042         0.15930
C         16.02198         3.40775         0.40189
C         14.78699         4.11551         0.15260
C         16.06408         6.19244        -0.25671
C         14.83736         5.54393        -0.14950
C         16.16417         7.64012        -0.57691
C         14.88741         8.38719        -0.78008
C         16.02190        10.50544         0.11137
C         14.78618         9.81654        -0.35053
C         16.06292        11.99786         0.02547
C         14.81656        12.74196        -0.31336
C         15.98709        14.91239         0.28042
C         14.76516        14.20429        -0.09041
C         16.06741        16.29179         0.20312
C         14.88835        17.07027        -0.24347
C         16.02789        19.20159         0.82438
C         14.84668        18.51188         0.15423
C         16.03487        20.67907         0.43704
C         14.82972        21.38631         0.29102
C         16.04749        23.49843         0.02495
C         14.81321        22.79284         0.06336
C         16.04599        24.93043        -0.11293
C         14.81155        25.63777        -0.22515
C         16.05029        27.77351        -0.30941
C         14.81577        27.06180        -0.30844
C         16.04906        29.20825        -0.39127
C         14.81308        29.92440        -0.39906
C         16.05796        32.05144        -0.47633
C         14.81617        31.35380        -0.36902
C         16.15768        33.54691        -0.20045
C         14.82633        34.29250        -0.22475
C         16.02571        36.59678        -0.76651
C         14.76393        35.72675        -0.68557
C         16.05653        37.63549         0.34864
C         14.78316        38.45659         0.29720
C         18.47426         3.34698         0.66874
C         17.24062         4.02540         0.33208
C         18.50479         6.18472         0.43694
C         17.36611         5.42937        -0.21470
C         18.37697         7.66210         0.71604
C         17.48454         8.37492        -0.29653
C         18.48237        10.52098         0.49878
C         17.32993         9.82516         0.14154
C         18.47845        11.95290         0.67559
C         17.13329        12.62820         0.89044
C         18.48179        14.88093         0.85174
C         17.14590        14.15585         0.82204
C         18.49478        16.32994         0.60437
C         17.29635        17.03430         0.46649
C         18.52801        19.19172         0.46011
C         17.30681        18.46924         0.50946
C         18.51861        20.63175         0.36490
C         17.27472        21.36222         0.31117
C         18.52027        23.49516         0.09160
C         17.27572        22.77961         0.13211
C         18.51976        24.92190        -0.01398
C         17.27967        25.64230        -0.11783
C         18.52668        27.78951        -0.21786
C         17.28398        27.06607        -0.22738
C         18.53456        29.21283        -0.33731
C         17.27867        29.91846        -0.44964
C         18.54757        32.03865        -0.81618
C         17.25913        31.33764        -0.56612
C         18.57796        33.54346        -0.99826
C         17.26470        34.27055        -0.94975
C         18.56835        36.45281        -0.64065
C         17.28982        35.76255        -0.90387
C         18.51286        37.83330        -0.22409
C         17.31454        38.44124         0.19085
C         19.62890         4.04589         0.84890
C         20.80314         6.24067         1.25880
C         19.62612         5.50213         0.83814
C         20.85799         7.60596         1.18216
C         19.71070         8.38940         0.81782
C         20.94775        10.55534         0.74409
C         19.73655         9.77803         0.67193
C         20.92981        11.91781         0.68805
C         19.69125        12.67114         0.69342
C         20.82898        14.84146         0.14163
C         19.71907        14.10218         0.65530
C         20.86154        16.21178         0.12113
C         19.80743        17.01825         0.83775
C         20.96556        19.21550         0.42294
C         19.77166        18.49124         0.49150
C         20.95943        20.60192         0.29721
C         19.74940        21.33389         0.27732
C         20.95627        23.51840         0.16141
C         19.74890        22.78401         0.17648
C         20.95699        24.89819         0.08039
C         19.75116        25.63187        -0.00392
C         20.95878        27.81241        -0.00802
C         19.75503        27.07937        -0.08079
C         20.96463        29.19402        -0.09483
C         19.77164        29.92266        -0.28179
C         20.96739        32.11927        -0.45000
C         19.80856        31.36414        -0.47009
C         20.97713        33.53980        -0.57320
C         19.83007        34.28604        -0.75799
C         20.98857        36.49515        -0.47282
C         19.79742        35.75203        -0.64439
C         20.95396        37.88204        -0.26700
C         19.74844        38.54699        -0.11640
O         13.40813        19.88392         1.65113
O          4.34337        27.01685         1.99563
O          9.31025        23.01909        -2.04668
O         15.17243        18.14441        -1.22393
O         18.61135        32.65025        -2.16088
O         10.56082        16.83620        -1.72784
O         10.21907        34.93289         1.92244
O         13.90706        36.03965        -1.82943
O          6.40360         7.36390        -2.70715
O         12.86511         7.83763        -2.07236
O          4.73155        34.16957         2.19844
O          1.69211        14.37049         1.33853
O          9.05234        27.55108        -1.83762
O         14.15746        34.08959         1.07730
O         15.07664         9.94445         1.10162
O         17.08322        35.00348        -2.18449
O          5.85133        24.31542        -1.74000
O         17.68079        14.64698         2.08387
O          6.57707        28.43998         1.71847
O          7.09192        30.69589        -1.28804
O         15.91196        12.46899        -1.33113
O          3.96365         7.99359        -2.26845
O          0.96983         6.64541        -1.57184
O         15.70639         8.04770        -1.93906
O          7.90748        18.87204         1.32236
O          3.56190        20.48535        -2.10814
H          3.65070        21.40305        -2.44518
O         16.65648        33.61616         1.17135
H         15.86297        33.61154         1.75919
O          1.36097         2.23470         1.06132
H          1.26885         2.12707         0.09252
O         10.85688         8.09824         1.02869
H         11.52176         7.61300         1.56055
O         13.42105        16.45531        -2.05005
H         13.92656        17.24469        -2.35324
O          3.68643        36.47108         2.25245
H          3.98666        35.57299         2.58816
O         12.47388        16.62904         1.46510
H         11.89676        17.22348         1.98974
O         16.73726        12.28078         2.24505
H         17.21148        12.89816         2.84830
O          3.65810        16.19894         1.86483
H          2.88598        15.63149         2.11889
O         18.22718         8.40900        -1.53525
H         17.56929         8.47263        -2.26578
O         16.09872        36.92024         1.62366
H         16.11820        37.58151         2.34641
O         15.88375        19.11977         2.26752
H         14.99728        19.50273         2.48709
O         17.76811         5.27394        -1.62668
H         16.99054         4.93379        -2.11849
O          4.76865        35.68035        -1.16329
H          5.46391        35.10941        -1.55158
O         17.71135         7.76214         2.01227
H         18.31050         7.38227         2.68860
O         12.01937        34.15864        -1.89946
H         12.64214        34.80895        -2.31409
O          3.94374        33.36856        -1.28583
H          3.13267        33.02130        -1.71418
O          3.65710        29.43171         2.56026
H          4.32582        28.80442         2.92293
O         10.13618         8.25480        -2.56343
H          9.76223         7.37605        -2.84199
O         20.10590        16.94181         2.27881
H         19.29314        17.19645         2.76546
O         15.96371        37.39135        -1.96458
H         15.98587        36.77132        -2.72623
O          6.19204        14.68712         1.67057
H          5.41663        15.19572         2.01789
O          8.55805        33.01521         2.28854
H          8.95122        33.76653         2.79322
O          3.78339        23.15632         1.76959
H          3.10347        23.70726         2.21424
O          8.64269         5.97914        -2.52316
H          7.77702         6.39868        -2.84943
H          1.52643         3.72082         2.46861
H         -0.82400         3.74588         1.32178
H         -1.01095         5.80830         0.03286
H         -1.07295         7.88563        -0.09206
H         -0.98218        10.31990         0.09440
H         -0.97761        12.13052        -0.59774
H         -1.02789        14.54081        -0.55249
H         -0.98595        16.45055        -0.54228
H         -0.99059        18.88734        -0.68005
H         -1.04240        20.77738        -0.16804
H         -1.03531        23.19555         0.06500
H         -1.00022        25.09068         0.20658
H         -0.99760        27.51404         0.32442
H         -0.93604        29.38794        -0.04824
H         -0.94992        31.81471        -0.14417
H         -1.01038        33.75202         0.16452
H         -0.96772        36.21341         0.13152
H          0.28651        38.35246         0.14105
H          3.87900         2.65910         1.24511
H          2.40323        39.60155         0.07522
H          6.26268         2.54725         0.71709
H          4.93493        39.58287         0.17047
H          8.65704         2.43821         0.25828
H          7.39536        39.58795         0.44782
H         11.09022         2.38444         0.21569
H          9.84620        39.60510         0.47820
H         13.55235         2.37697         0.40747
H         12.32304        39.65803         0.32774
H         15.96031         2.34855         0.69799
H         14.80816        39.49180         0.67417
H         18.45127         2.25726         0.82076
H         17.34073        39.48585         0.53899
H         20.55959         3.52621         1.11953
H         21.69417         5.67197         1.56232
H         21.80548         8.11443         1.41241
H         21.91468        10.03720         0.80966
H         21.87885        12.47058         0.72003
H         21.66646        14.28795        -0.30917
H         21.67921        16.72536        -0.40600
H         21.92698        18.68668         0.48523
H         21.92383        21.12167         0.23276
H         21.92212        23.00138         0.22544
H         21.92373        25.41747         0.07844
H         21.91809        27.29574         0.12220
H         21.92625        29.72010        -0.03460
H         21.93537        31.63449        -0.26221
H         21.94651        34.04100        -0.44337
H         21.96387        35.99270        -0.51555
H         21.89910        38.43504        -0.17331
H         19.72899        39.61746         0.13256
