         576
 CSIRO Nanostructure Databank - Neutral Graphene Oxide Data Set
C          5.98052        19.04413         1.04858
C          5.97395        20.43594         0.91371
C          4.73672        21.18926         1.03010
C          5.86706        23.33079         0.62810
C          4.69287        22.55015         0.94356
C          5.87981        24.70071         0.60357
C          8.43247        14.68414         0.67077
C          8.42946        16.10099         1.04209
C          7.20002        16.90788         0.99415
C          8.46385        19.06475         1.04723
C          7.19652        18.28800         1.04553
C          8.42426        20.48210         0.61091
C          7.18374        21.14751         0.63633
C          8.35629        23.36024         0.45057
C          7.09526        22.57751         0.17106
C          8.33034        24.79295         0.15148
C          7.07638        25.47201         0.29114
C          8.25564        27.60466        -0.04831
C          7.05848        26.85931         0.22675
C          8.20963        28.99023        -0.14159
C         10.80789        10.39281         0.27473
C         10.77688        11.82587         0.09367
C          9.60617        12.54525         0.34042
C         10.88188        14.63327         0.25198
C          9.62335        13.96760         0.42381
C         10.98580        16.06269         0.60336
C          9.76872        16.81911         1.05545
C         10.92031        19.01913         0.32169
C          9.78322        18.32588         0.96949
C         10.86444        20.42915         0.08084
C          9.63667        21.14414         0.29396
C         10.80987        23.36644        -0.21027
C          9.67191        22.61848         0.34359
C         10.75338        24.72491        -0.39724
C          9.53196        25.48157        -0.12497
C         10.71210        27.63759        -0.50319
C          9.50001        26.89390        -0.24773
C         10.67302        29.02570        -0.59724
C          9.37585        29.80143        -0.61325
C         10.66574        31.87525         0.02294
C          9.50836        31.14618         0.08038
C         10.80098        33.20514         0.57094
C         13.33395         6.37430         1.34414
C         13.26114         7.69289         0.76147
C         12.04005         8.31126         0.58170
C         13.14192        10.21097        -0.65072
C         11.95557         9.66160         0.11269
C         13.13219        11.74242        -0.77275
C         11.97917        12.51332        -0.25303
C         13.28295        14.63006        -0.49372
C         12.03301        13.92632        -0.18490
C         13.20324        16.13325        -0.73760
C         12.17328        16.82833         0.13363
C         13.26052        19.00130        -0.33356
C         12.08357        18.30879         0.00314
C         13.25210        20.41952        -0.46933
C         12.02835        21.12033        -0.36528
C         13.21503        23.31437        -0.84960
C         11.91192        22.55451        -0.86035
C         13.22191        24.68860        -0.90687
C         11.91207        25.44568        -1.06510
C         13.14675        27.63600        -0.82645
C         11.96267        26.92864        -0.71484
C         13.19310        29.08123        -0.86508
C         11.89513        29.78238        -0.87733
C         13.16189        31.98894        -0.46661
C         11.87424        31.29288        -0.60957
C         13.21200        33.28605         0.01899
C         11.99303        33.90805         0.54396
C         13.23760        35.96538         1.15591
C         12.07601        35.23036         1.12297
C         13.32100        37.23682         1.84289
C         15.77221         6.49861         1.47134
C         14.52144         5.79929         1.67739
C         15.72721         7.79744         0.88648
C         14.50426         8.40532         0.46523
C         15.71933        10.29994        -0.63856
C         14.47140         9.67316        -0.14079
C         15.75588        11.72934        -1.25563
C         14.42742        12.48330        -1.02560
C         15.74218        14.64821        -0.97729
C         14.44347        13.94541        -0.76421
C         15.76985        16.13945        -0.85534
C         14.51299        16.88056        -0.60661
C         15.74666        19.01393        -0.31971
C         14.49312        18.24324        -0.47177
C         15.73028        20.46260        -0.63334
C         14.50532        21.11177        -0.72913
C         15.76876        23.32628        -1.01479
C         14.45447        22.54918        -1.05105
C         15.67457        24.77880        -0.82474
C         14.46030        25.42930        -0.90580
C         15.61466        27.68935        -0.71631
C         14.41077        26.90805        -1.22518
C         15.65697        29.14305        -0.97862
C         14.38221        29.81042        -0.99152
C         15.69332        32.02806        -0.76499
C         14.36032        31.29653        -0.97134
C         15.67030        33.35188        -0.13011
C         14.47611        33.98531         0.14368
C         15.76884        36.14327         0.80504
C         14.47450        35.41499         0.55899
C         15.77792        37.39150         1.61647
C         14.49713        37.88504         2.08590
C         18.26223         6.44535         1.44755
C         16.99253         5.86151         1.75523
C         18.28370         7.89372         1.12937
C         16.96883         8.57038         0.80514
C         18.28966        10.48231        -0.25383
C         17.01826         9.71636        -0.14580
C         18.26563        11.79811        -0.63986
C         16.99535        12.51439        -0.80892
C         18.24338        14.60773        -0.24218
C         17.00182        13.87790        -0.75318
C         18.22145        16.11178        -0.43595
C         17.05993        16.80128        -0.54169
C         18.28569        19.01413        -0.53028
C         17.03480        18.26903        -0.31324
C         18.23444        20.44317        -0.63354
C         16.99956        21.15446        -0.71165
C         18.22505        23.29070        -0.63647
C         17.02365        22.58539        -0.75353
C         18.18484        24.72668        -0.27454
C         16.89353        25.48359        -0.36897
C         18.14977        27.72164        -0.59272
C         16.89005        26.98698        -0.35377
C         18.13984        29.06475        -0.87493
C         16.88685        29.80859        -0.93210
C         18.16101        31.86941        -0.56489
C         16.95255        31.24491        -0.76852
C         18.23330        33.18548         0.10308
C         16.94500        33.90143         0.40570
C         18.37281        36.01010         1.17442
C         17.01803        35.31308         0.90434
C         18.24148        37.57749         1.15949
C         16.96619        38.01061         1.85893
C         20.67025         6.27357         0.74878
C         19.42289         5.70027         1.37242
C         20.78961         7.78328         1.02594
C         19.52196         8.50229         0.59607
C         20.80213        10.36374        -0.39928
C         19.51872         9.73837         0.01031
C         20.80463        11.77350        -0.88990
C         19.50873        12.54690        -1.11709
C         20.76894        14.68977        -0.57214
C         19.56590        13.97809        -0.63970
C         20.76610        16.12698        -0.41689
C         19.48913        16.85386        -0.05573
C         20.71529        19.01052        -0.62100
C         19.47612        18.30748        -0.48627
C         20.68596        20.43279        -0.73928
C         19.48147        21.14792        -0.68179
C         20.67969        23.32448        -0.60000
C         19.48153        22.60456        -0.64875
C         20.70981        24.76265        -0.66909
C         19.49151        25.52955        -0.13981
C         20.68144        27.66930        -0.63772
C         19.37760        26.89721        -0.89335
C         20.68659        29.11150        -1.08449
C         19.37697        29.76563        -1.43356
C         20.71220        31.93165        -0.76691
C         19.41048        31.30311        -1.17621
C         20.75217        33.32054        -0.43233
C         19.53135        33.94868         0.13617
C         20.65470        36.08683        -0.03193
C         19.51909        35.42638         0.31204
C         20.70784        37.93740         1.26316
C         19.49646        38.11935         1.84726
C         23.18286         6.17699         0.84452
C         21.96100         5.56109         1.06521
C         23.19249         7.59348         0.43366
C         22.04909         8.33143         0.41794
C         23.36401        10.41921        -0.17615
C         22.04954         9.84045         0.30498
C         23.39710        11.82865        -0.63283
C         22.10173        12.55651        -0.87901
C         23.26026        14.71669        -0.42667
C         22.06360        14.02071        -0.65998
C         23.24536        16.16369        -0.43314
C         21.95914        16.86065        -0.49614
C         23.20758        19.04307        -0.30195
C         21.92982        18.29013        -0.55057
C         23.22970        20.47521        -0.77467
C         21.94075        21.20876        -1.06432
C         23.20963        23.34810        -0.76678
C         21.95837        22.56170        -0.36059
C         23.08009        24.67668        -1.49357
C         21.85128        25.43407        -1.03311
C         23.10251        27.58186        -0.80149
C         21.84693        26.91442        -1.30659
C         23.14349        29.05869        -0.88859
C         21.89185        29.78255        -1.07509
C         23.15965        31.91472        -0.81230
C         21.94193        31.24419        -0.99199
C         23.19877        33.30716        -0.51499
C         21.96178        34.00468        -0.41064
C         23.14735        36.01576         0.52687
C         22.00122        35.50720        -0.36788
C         23.09944        37.16792         1.42718
C         22.04484        37.96854         1.82205
C         25.68173         6.10852         1.01396
C         24.42255         5.48202         1.06288
C         25.73046         7.54733         0.63843
C         24.49308         8.27013         0.23820
C         25.75805        10.45326         0.45889
C         24.51986         9.75425         0.16519
C         25.67262        11.93290         0.48381
C         24.71338        12.58916        -0.48544
C         25.69106        14.79941         0.07633
C         24.54104        14.07016        -0.22238
C         25.70339        16.24229        -0.07210
C         24.44390        16.86327        -0.40587
C         25.65115        19.06403        -0.43978
C         24.42451        18.29173        -0.85648
C         25.68195        20.41875        -1.04259
C         24.40501        21.14360        -0.89734
C         25.63423        23.25747        -1.77667
C         24.47427        22.61022        -1.01572
C         25.59337        24.74310        -1.44577
C         24.40757        25.40114        -1.31582
C         25.63027        27.56549        -0.79216
C         24.37949        26.80993        -0.87843
C         25.58290        28.97753        -0.59995
C         24.35623        29.70882        -0.79197
C         25.64991        31.84558        -0.44513
C         24.44737        31.19144        -1.07158
C         25.62227        33.20211        -0.04084
C         24.41127        33.96536        -0.10624
C         25.51742        35.83161         1.27818
C         24.34755        35.29485         0.46242
C         25.63247        37.33968         1.28266
C         24.40241        37.36834         2.16299
C         28.17935         6.13264         1.21362
C         26.91271         5.44558         1.16815
C         28.16731         7.61358         1.39678
C         26.88183         8.34697         1.14206
C         28.10899        10.52430         1.36334
C         26.88047         9.81096         0.92726
C         28.14055        12.04967         1.28227
C         26.87484        12.73594         0.86760
C         28.13580        14.83268         0.53312
C         26.94392        14.14858         0.43432
C         28.12811        16.32953         0.67732
C         26.88846        16.95542         0.10246
C         28.17789        19.25660         0.01418
C         26.89328        18.42829         0.04903
C         28.23830        20.20118        -1.21713
C         26.96827        21.06972        -1.42736
C         28.16552        23.24844        -1.40497
C         26.98933        22.56576        -1.49459
C         28.18372        24.73548        -1.33158
C         26.87219        25.47710        -1.31153
C         27.95903        27.40424        -0.07549
C         26.82206        26.85323        -0.79006
C         27.94980        28.88325         0.16688
C         26.79449        29.66809        -0.35655
C         28.13770        31.79521        -0.31557
C         26.82513        31.07240        -0.29934
C         28.05180        33.15466         0.31216
C         26.84446        33.78788         0.47759
C         27.99139        35.98029         0.69089
C         26.85828        35.07350         1.27740
C         28.11054        37.33457         1.40471
C         26.77336        38.05421         1.39256
C         30.67690         6.18785         1.58073
C         29.39037         5.48216         1.20687
C         30.67911         7.66102         1.23339
C         29.42685         8.39079         1.28587
C         30.65114        10.53108         1.25309
C         29.38150         9.77095         1.26483
C         30.67620        12.04615         1.14177
C         29.40452        12.77017         1.02761
C         30.63624        14.85700         0.55426
C         29.39797        14.13176         0.71366
C         30.64814        16.29006         0.35451
C         29.41725        17.02496         0.29159
C         30.66387        19.11083        -0.06403
C         29.42891        18.39408         0.01887
C         30.74677        20.43018        -0.65446
C         29.51218        21.04298        -1.18268
C         30.74713        23.28607        -1.09329
C         29.49216        22.55518        -1.38160
C         30.70685        24.80265        -1.29546
C         29.40010        25.36595        -0.79085
C         30.53507        27.31265         0.37517
C         29.29514        26.58573        -0.03043
C         30.51110        28.82389         0.67571
C         29.23389        29.59211         0.50121
C         30.53728        31.69069         0.25463
C         29.33471        31.02582         0.18444
C         30.51427        33.13801         0.26352
C         29.32121        33.84229         0.48063
C         30.53262        35.97543         0.63504
C         29.32822        35.25659         0.65164
C         30.52156        37.43351         0.75136
C         29.33804        38.10312         0.96244
C         33.05771         6.16682         0.78856
C         31.92448         5.49802         1.08633
C         33.12431         7.62481         0.80466
C         31.86318         8.31808         0.97817
C         33.12395        10.51777         0.56258
C         31.84219         9.77871         0.75428
C         33.14813        11.99900         0.66017
C         31.90685        12.73667         0.69616
C         33.11820        14.84708         0.22643
C         31.86468        14.12880         0.54164
C         33.22932        16.34106         0.50791
C         31.87242        17.02303         0.39274
C         33.27818        18.89847        -1.40773
C         31.80132        18.42535         0.45903
C         33.19668        20.41523        -1.31946
C         31.94061        21.12127        -0.95956
C         33.24843        23.26239        -0.91661
C         31.94708        22.57400        -1.06230
C         33.28058        24.73509        -0.65165
C         31.94900        25.52266        -0.75489
C         32.96458        27.35183         0.70727
C         31.82068        26.73777         0.01682
C         32.99676        28.84098         0.74732
C         31.79045        29.55967         0.57464
C         33.03707        31.64715         0.42298
C         31.79955        30.96437         0.41527
C         33.09359        33.09507         0.16006
C         31.75885        33.87748         0.11027
C         33.01874        35.97404         0.48505
C         31.77696        35.30229         0.42610
C         32.98027        37.41984         0.58093
C         31.80444        38.10791         0.65379
C         34.31029         8.31467         0.64072
C         35.58503        10.44181         0.71304
C         34.40013         9.76372         0.64679
C         35.66842        11.94215         0.86909
C         34.36293        12.63885         0.57488
C         35.71342        14.80847         0.45081
C         34.40453        14.06399         0.25330
C         35.69260        16.11290        -0.36364
C         34.42486        16.95894        -0.25373
C         35.72257        18.99369        -0.86719
C         34.46804        18.23009        -0.78474
C         35.74311        20.35086        -1.05374
C         34.50495        21.15841        -1.26546
C         35.75928        23.36444        -0.74243
C         34.44707        22.59844        -0.89298
C         35.64564        24.61765         0.12244
C         34.38730        25.27822         0.13903
C         35.48874        27.32156         1.23926
C         34.24925        26.55986         0.84394
C         35.47576        28.82280         1.12925
C         34.21901        29.53860         0.80117
C         35.50247        31.68128         0.73936
C         34.24415        30.94916         0.66454
C         35.49542        33.08089         0.72865
C         34.30743        33.84374         0.50951
C         34.24491        35.24686         0.52999
C         36.83165        12.59389         0.14933
C         38.11587        14.64960        -0.33694
C         36.91047        13.96373         0.02347
C         38.22327        16.05578        -0.34893
C         36.98428        16.86378        -0.15214
C         38.27857        18.92356        -0.99337
C         36.99272        18.30437        -0.49816
C         38.27348        20.39038        -0.66891
C         37.03033        21.15723        -1.07138
C         38.14226        23.14310         0.02648
C         36.85000        22.41178        -0.18957
C         38.08281        24.44165         0.78367
C         36.78656        25.19997         0.64961
C         38.00440        27.38411         0.83981
C         36.81244        26.55887         1.32001
C         37.95548        28.76606         0.77882
C         36.75402        29.54518         0.91757
C         36.72800        30.92391         0.79113
C         39.44148        16.73948        -0.48792
C         40.65305        18.87033        -0.20249
C         39.50909        18.17781        -0.51693
C         40.63450        20.33351         0.17733
C         39.38481        21.05267        -0.27237
C         40.59242        23.23500         0.11033
C         39.34371        22.49683        -0.04091
C         40.55242        24.60361         0.30880
C         39.31401        25.29469         0.54934
C         39.23192        26.67304         0.60521
C         41.85917        21.14542        -0.17821
C         41.82500        22.49736        -0.13089
O         25.75033        12.53379         1.80175
O         15.16662        22.88752        -2.28617
O         17.32921        24.90222         0.90518
O         20.69913        37.49222        -0.08942
O         33.26737        26.57304         1.93703
O         11.69862        30.77059        -1.97061
O         26.11770        20.44591        -2.45630
O         33.81444        20.94120        -2.55130
O         30.89268        11.33549         2.44210
O         27.67613        25.40461        -2.57027
O         16.40630        18.66357         0.97147
O         22.92283        12.08839        -2.00942
O         15.75531        15.48854        -2.19903
O         32.97850        25.60128        -1.81360
O         23.62981        26.98177         0.40630
O         28.24466        29.28643         1.54551
O         29.68349        21.62815        -2.51253
O         32.28107        10.13380        -0.60139
O         19.09870        33.15471         1.30653
O         19.72447        25.69055         1.22548
O         16.80199        34.20999         1.84521
O         12.14700        16.33882         1.49978
O         28.02628        11.36343         2.56492
O         37.03107        17.86564         0.90308
O         25.41853         7.71442        -0.78733
O          9.33503        18.92572         2.22140
O          9.23415        16.32746         2.29827
O         25.91273        19.03409         0.99313
O         15.11760        36.26201        -0.48473
O         19.60870        31.98409        -2.43105
O         35.32878        28.13437         2.44060
O         17.60896         8.76231         2.10433
O         24.23223        23.29786         0.26822
O         24.87142        36.03282         2.64431
O         15.03318        31.97495        -2.07477
O         20.89432        10.63659        -1.82490
O         27.28734         8.00342         2.51088
O         16.49255         9.33661        -1.45513
O         21.97166        10.29927         1.65045
O          9.12334        23.06932         1.64684
O         15.97953        27.46775         0.69147
O         13.48789        12.18215        -2.13574
O         32.50324        18.26713        -2.10759
O         33.71329        14.38626        -1.02237
O         32.50028        33.50240        -1.10832
O         14.27614        26.95590        -2.63280
O         28.30476        26.55230         1.05199
O         30.48928        27.84551         1.74063
O         19.27427        26.56005        -2.29372
H         19.28997        27.40160        -2.80978
O         30.68283        24.98443        -2.73543
H         31.62274        24.99822        -3.03517
O         35.77799        15.76073        -1.77105
H         34.95131        15.27588        -2.01148
O         24.69538        31.30490        -2.52585
H         23.85413        31.09474        -2.98626
O         15.93151        11.58396        -2.67546
H         15.04589        11.62079        -3.10031
O         28.03231        16.55860         2.13463
H         27.20723        16.13287         2.45361
O         38.24101        18.82182        -2.45584
H         39.15325        18.95453        -2.78969
O         24.31760        18.28425        -2.30081
H         25.05688        18.80191        -2.69288
O         22.89040        24.42400        -2.91271
H         23.65789        23.88622        -3.23902
O         28.36186        19.32047        -2.34321
H         28.64117        19.86280        -3.11406
O         38.11670        23.97485         2.18825
H         37.87778        24.75835         2.74895
O         27.61026        36.23035        -0.68330
H         28.32022        36.75808        -1.10605
O         36.39094        21.95680         1.11127
H         36.85057        22.50566         1.79473
O         28.41301        31.99678        -1.75587
H         27.62798        32.43712        -2.14867
O         28.34647        37.06332         2.82899
H         28.53970        37.91828         3.26792
O         19.34362        12.65124        -2.56145
H         19.63147        11.78712        -2.93743
O         35.91282        12.20721         2.31361
H         36.72488        11.71977         2.57036
O         20.47533         6.18629        -0.70249
H         20.51639         5.24212        -0.96209
O         20.94079        27.81412         0.76346
H         20.57729        27.01033         1.25667
O          9.08148        30.10192        -2.02763
H          9.91597        30.48546        -2.40149
O         33.62603        16.44386         1.90031
H         33.81698        17.38665         2.09538
O          7.02128        22.52736        -1.29434
H          6.17075        22.10444        -1.53747
O         19.48314        16.87977         1.42652
H         18.77038        17.49557         1.70850
O         35.88549        15.10101         1.84718
H         35.89444        14.23972         2.32871
O         28.23301        20.10302         1.18053
H         27.44261        19.89771         1.73472
O         18.18358        14.43746         1.21929
H         18.78529        15.11807         1.61676
O         21.91754        21.47591        -2.49090
H         21.95698        20.62129        -2.96933
O         40.59642        20.30914         1.64414
H         39.74549        19.90138         1.91302
O         30.73329         6.10939         3.04888
H         29.95367         6.59124         3.40078
O         22.01596        22.26697         1.05094
H         22.15791        23.10654         1.53860
O         21.80864        27.10117        -2.74329
H         21.90203        26.22068        -3.17486
O         25.40717        12.49821        -1.76353
H         24.71013        12.52542        -2.46225
O         11.68072        25.41238        -2.51522
H         12.45780        25.88557        -2.91428
O         18.11503        38.04189        -0.19202
H         19.00872        38.01302        -0.60607
O         19.26407        29.56557        -2.87354
H         19.40170        30.47840        -3.26072
O         18.75738        35.68488         2.52140
H         18.62159        34.71034         2.62372
O         22.34032        35.94949        -1.71754
H         22.14913        36.91168        -1.75571
O         23.32779        19.09595         1.14490
H         22.76510        19.82955         1.47516
O         36.12142        23.87631        -2.03955
H         36.35112        23.10926        -2.61793
O         37.24270        21.54232        -2.46150
H         37.38755        20.70153        -2.95641
O         20.92025         8.01761         2.43780
H         21.28381         8.95547         2.50569
O         27.18172        34.67707         2.61320
H         27.20887        35.48649         3.17179
O         11.51975        22.44230        -2.26858
H         11.54006        23.35838        -2.64291
O         25.36036        23.10187        -3.19247
H         26.11833        23.47853        -3.69022
O         37.07382        26.33436         2.74324
H         36.61693        27.06993         3.22228
O         13.00881         9.65503        -1.98799
H         13.35415        10.33019        -2.61779
O         12.76206        16.27050        -2.11687
H         13.49236        15.94263        -2.68873
O         32.83636        19.12771         1.01841
H         32.58028        20.06796         1.12170
H          5.02637        18.50963         1.16934
H          3.81911        20.62904         1.26256
H          3.74654        23.08146         1.12538
H          4.96111        25.25786         0.84507
H          7.47653        14.13939         0.66907
H          6.24027        16.37336         0.92305
H          6.11888        27.40782         0.38841
H          7.24326        29.50444        -0.02483
H          9.91987         9.91198         0.71297
H          8.67000        12.00637         0.54501
H          8.60430        31.59439         0.51981
H          9.90740        33.67720         1.00613
H         12.38999         5.84103         1.52896
H         11.12027         7.81011         0.92002
H         11.16586        35.64232         1.58608
H         12.38246        37.66488         2.22677
H         14.54977         4.79418         2.12199
H         14.48751        38.83162         2.64691
H         16.96870         4.81974         2.11036
H         16.98802        38.93164         2.46283
H         19.39430         4.62938         1.63377
H         19.43514        38.42513         2.90136
H         21.92917         4.51982         1.42513
H         22.21891        38.63882         2.68029
H         24.37419         4.40849         1.30514
H         24.35156        38.12971         2.97604
H         26.91935         4.34974         1.27727
H         26.73988        39.09115         1.76860
H         29.41506         4.38434         1.12146
H         29.34548        39.19870         1.08113
H         33.96508         5.61471         0.49950
H         31.91586         4.39764         1.06148
H         33.93407        37.96825         0.57274
H         31.81523        39.20678         0.70679
H         35.24798         7.74592         0.54365
H         36.52828         9.87552         0.78103
H         36.44643        33.61878         0.86408
H         35.17562        35.81456         0.68444
H         37.70173        11.96973        -0.11173
H         39.01530        14.04754        -0.54313
H         38.88285        29.31057         0.53790
H         37.67827        31.46874         0.67960
H         40.38412        16.17000        -0.45789
H         41.54281        18.29915         0.11105
H         41.48551        25.18803         0.28141
H         40.14313        27.26917         0.43256
H         42.80835        20.62010        -0.36316
H         42.74824        23.07663        -0.28937
