         404
 CSIRO Nanostructure Databank - Neutral Graphene Oxide Data Set
C          1.24073         3.30301        -0.69929
C          0.09696         4.00486        -0.89807
C          1.12020         6.18619        -0.37339
C         -0.00048         5.41890        -0.63235
C          1.10208         7.62618        -0.30331
C         -0.05265         8.37975        -0.56594
C          1.15722        10.53069        -0.44940
C         -0.03909         9.77281        -0.58804
C          1.15769        11.97533        -0.51993
C         -0.04263        12.71468        -0.64080
C          1.16761        14.83420        -0.62030
C         -0.04201        14.09611        -0.66178
C          1.15118        16.29541        -0.51428
C         -0.06707        17.01880        -0.50260
C          1.08329        19.12412        -0.03376
C         -0.09591        18.38893        -0.30537
C          1.05621        20.55208         0.19280
C         -0.09715        21.32785         0.09645
C          1.08993        23.43904         0.58477
C         -0.09790        22.71517         0.33844
C          1.06695        24.90599         0.90328
C         -0.12026        25.72131         0.51668
C          0.65093        28.09665         0.76719
C         -0.31900        27.07130         0.43860
C          0.85975        29.34440         0.21783
C         -0.23567        30.16195        -0.26967
C          1.05887        32.14104         0.43452
C         -0.16958        31.50228        -0.10236
C          1.10462        33.65533         0.62731
C         -0.10365        34.47872         0.44083
C          1.25483        36.50335         0.43498
C         -0.02127        35.82747         0.36406
C          1.30194        37.92676         0.53420
C          3.75349         3.30696        -0.31647
C          2.41912         3.97800        -0.03983
C          3.62151         6.17519         0.17911
C          2.45647         5.46570        -0.47208
C          3.62714         7.67572         0.25030
C          2.32503         8.39667         0.03446
C          3.61827        10.55007        -0.16491
C          2.37850         9.85114        -0.22971
C          3.63723        11.96921        -0.31869
C          2.39311        12.68457        -0.45838
C          3.65860        14.81109        -0.69958
C          2.37910        14.10523        -0.56789
C          3.64648        16.35721        -0.55226
C          2.35052        17.02705        -0.31602
C          3.57031        19.13560         0.16083
C          2.32424        18.41052        -0.01280
C          3.57308        20.50814         0.30457
C          2.30253        21.21452         0.71931
C          3.57509        23.38599         0.55116
C          2.31525        22.72122         0.59912
C          3.63556        24.78992         0.64534
C          2.46440        25.55981         1.06785
C          3.59726        27.72435         0.42548
C          2.60705        27.02696         1.03863
C          3.55356        29.18100         0.08947
C          2.23451        29.95836         0.07787
C          3.55642        32.09654         0.16672
C          2.33407        31.42637         0.22412
C          3.56944        33.55300         0.23885
C          2.41773        34.30383         0.43663
C          3.70276        36.44823         0.44259
C          2.44761        35.75590         0.41911
C          3.73500        37.87453         0.60666
C          2.49686        38.59201         0.65286
C          6.22748         3.32246        -0.14618
C          4.94719         3.97938        -0.19753
C          6.14286         6.23848        -0.07139
C          4.90785         5.43821         0.12231
C          6.11978         7.71537         0.08957
C          4.90217         8.41394         0.08756
C          6.10435        10.54103        -0.09943
C          4.86948         9.83465        -0.01934
C          6.11762        11.97790        -0.20960
C          4.88782        12.68068        -0.29690
C          6.11650        14.83191        -0.32919
C          4.91353        14.10692        -0.42442
C          6.10494        16.28045        -0.21422
C          4.89520        16.98449        -0.16628
C          6.08728        19.15665        -0.06590
C          4.86604        18.38498         0.37758
C          6.03084        20.53393        -0.14522
C          4.80363        21.25688         0.16973
C          5.99726        23.42537        -0.07781
C          4.78225        22.64436         0.23265
C          6.04067        24.84321         0.28642
C          4.84885        25.52013         0.42159
C          6.10530        27.75129         0.08327
C          4.82773        26.97511         0.12727
C          6.10059        29.23749         0.08934
C          4.83887        29.95064         0.07775
C          6.04733        32.04886        -0.41665
C          4.80094        31.34522        -0.02945
C          6.06797        33.55559        -0.41451
C          4.81643        34.29580        -0.08513
C          6.15030        36.39693         0.32253
C          4.90649        35.73231         0.27470
C          6.18552        37.81278         0.59199
C          4.97162        38.52888         0.69713
C          8.67736         3.35122         0.23552
C          7.43025         4.00401         0.08367
C          8.58898         6.25898         0.50705
C          7.43060         5.49068        -0.02370
C          8.62246         7.71874         0.22842
C          7.35880         8.41570         0.01629
C          8.57935        10.54728        -0.35967
C          7.32862         9.82242        -0.10175
C          8.60235        12.01159        -0.23715
C          7.35985        12.70090        -0.22071
C          8.59771        14.83602        -0.15182
C          7.36222        14.12957        -0.22435
C          8.59027        16.28035        -0.08068
C          7.34995        16.98243        -0.06455
C          8.54696        19.12269        -0.15686
C          7.34392        18.43132        -0.11642
C          8.55922        20.53541        -0.51176
C          7.24188        21.26875        -0.55552
C          8.57006        23.45587        -0.17601
C          7.27680        22.76174        -0.45282
C          8.58005        24.77326         0.24426
C          7.32977        25.52063         0.47829
C          8.62387        27.76487         0.33034
C          7.35724        27.04550         0.50150
C          8.60711        29.14260         0.07852
C          7.34204        29.86349        -0.00843
C          8.65841        32.01416        -0.21107
C          7.38394        31.28974        -0.37193
C          8.68098        33.48391        -0.28344
C          7.39126        34.28130        -0.33039
C          8.59458        36.34128         0.40638
C          7.39105        35.69062         0.15677
C          8.64328        37.76448         0.64675
C          7.43263        38.47351         0.70516
C         11.14309         3.41986         0.42851
C          9.89577         4.04443         0.46535
C         11.11847         6.25901         0.93132
C          9.84239         5.49133         0.80501
C         11.08466         7.77048         0.70280
C          9.82233         8.39740         0.26135
C         11.12815        10.56781        -0.00410
C          9.89384         9.78994        -0.20474
C         11.09165        11.97691        -0.10861
C          9.83544        12.69881        -0.18193
C         11.07994        14.84401        -0.03509
C          9.83369        14.13102        -0.12097
C         11.06544        16.29482        -0.02543
C          9.82339        16.97733        -0.02829
C         11.05585        19.17742        -0.33580
C          9.83900        18.46282         0.22029
C         11.02738        20.55806        -0.48976
C          9.81046        21.31362        -0.39189
C         11.06437        23.43142        -0.17740
C          9.80623        22.70507        -0.28213
C         11.08963        24.78367         0.14041
C          9.85166        25.47290         0.50092
C         11.14368        27.71440         0.21373
C          9.87242        27.02952         0.53951
C         11.09482        29.16654         0.07030
C          9.85505        29.86540         0.02405
C         11.11457        32.02345         0.06762
C          9.85793        31.31015        -0.01978
C         11.11765        33.46512         0.20256
C          9.90975        34.15785         0.16700
C         11.15791        36.32656         0.70026
C          9.84401        35.56894         0.54747
C         11.13354        37.80322         0.62099
C          9.89242        38.45472         0.70996
C         13.61881         3.46536         0.51592
C         12.38602         4.13527         0.55439
C         13.58262         6.30334         0.66024
C         12.38793         5.56349         0.70240
C         13.56748         7.75245         0.56438
C         12.36004         8.45841         0.43360
C         13.57983        10.59533         0.21656
C         12.34876         9.87320         0.20824
C         13.56320        12.00694         0.07060
C         12.32019        12.70478        -0.04572
C         13.57232        14.84196         0.14913
C         12.29542        14.13136        -0.01214
C         13.56463        16.36405         0.10096
C         12.27899        17.03977        -0.09364
C         13.53074        19.10481        -0.58114
C         12.29805        18.44191        -0.36971
C         13.55149        20.53834        -0.87729
C         12.25730        21.31157        -0.78921
C         13.50693        23.44771        -0.50913
C         12.29589        22.74157        -0.44034
C         13.56928        24.83752        -0.29650
C         12.39337        25.50445         0.38340
C         13.57643        27.66873        -0.10134
C         12.32035        26.99134         0.11395
C         13.56923        29.12576         0.16499
C         12.31099        29.88758         0.07043
C         13.60473        32.03118         0.09150
C         12.33319        31.31041         0.08594
C         13.60894        33.49088         0.11415
C         12.37342        34.19268         0.26745
C         13.59554        36.34338         0.25247
C         12.39570        35.60430         0.37439
C         13.59772        37.78523         0.39057
C         12.35880        38.48112         0.51800
C         16.09038         3.49662         0.66318
C         14.84622         4.17304         0.61120
C         16.05390         6.33055         0.68362
C         14.83178         5.60769         0.63934
C         16.04469         7.76680         0.64095
C         14.81377         8.46616         0.52080
C         16.04199        10.60218         0.44004
C         14.81562         9.88844         0.39059
C         16.03878        12.02644         0.23847
C         14.81424        12.71855         0.03955
C         16.05500        14.82293        -0.30899
C         14.84169        14.12780        -0.09257
C         15.96637        16.26189        -0.59325
C         14.80771        17.02601        -0.33118
C         16.01777        19.11792        -0.90334
C         14.79502        18.42387        -0.59066
C         16.07526        20.57545        -1.01016
C         14.82623        21.29160        -0.54718
C         15.95006        23.48746        -1.32006
C         14.70338        22.72501        -1.00345
C         15.96349        24.91786        -0.96882
C         14.76159        25.56109        -0.56541
C         15.98356        27.74902        -0.83039
C         14.75072        26.99966        -0.38205
C         16.09208        29.15817        -0.31845
C         14.85988        29.87125         0.08219
C         16.09150        32.02468         0.01253
C         14.79700        31.33754         0.01129
C         16.09777        33.51574        -0.02336
C         14.80545        34.22224        -0.00612
C         16.04758        36.37896        -0.01502
C         14.82453        35.65177         0.03117
C         16.06326        37.78507         0.22693
C         14.82468        38.46806         0.39666
C         18.55992         3.51990         0.87619
C         17.29845         4.20104         0.76883
C         18.51545         6.35953         0.89280
C         17.28880         5.63501         0.77400
C         18.51341         7.78979         0.88601
C         17.27385         8.48482         0.71738
C         18.49078        10.62531         0.84223
C         17.27010         9.90655         0.64712
C         18.42418        12.09835         0.89717
C         17.24355        12.76746         0.30595
C         18.60906        14.77665        -0.09407
C         17.29605        14.11666        -0.10534
C         18.83519        15.95206        -0.83596
C         17.01076        16.95758        -1.24211
C         18.47697        18.98956        -1.52908
C         17.15919        18.35774        -1.22184
C         18.50401        20.53058        -1.74209
C         17.20561        21.24351        -1.38354
C         18.46467        23.41194        -0.98842
C         17.25948        22.75668        -1.62749
C         18.46193        24.80853        -0.80326
C         17.23041        25.58426        -0.85761
C         18.51147        27.67921        -0.58784
C         17.27119        26.97817        -0.68723
C         18.54611        29.11049        -0.56510
C         17.29180        29.81802        -0.42641
C         18.59662        32.03567        -0.59173
C         17.29138        31.29501        -0.49800
C         18.61283        33.49777        -0.38460
C         17.32723        34.20732        -0.50396
C         18.59117        36.38380        -0.12421
C         17.30916        35.71982        -0.38231
C         18.55510        37.77893         0.17645
C         17.30924        38.46195         0.27608
C         19.73060         4.21731         1.00598
C         20.94264         6.38711         1.17624
C         19.74096         5.65180         1.02493
C         20.93667         7.77011         1.19440
C         19.73350         8.51092         1.04187
C         20.92143        10.74260         1.17515
C         19.70673         9.95963         1.05061
C         20.93909        12.10143         1.17105
C         19.69516        12.88902         1.13898
C         20.80771        15.15923         0.85725
C         19.71484        14.29916         0.65310
C         20.81269        16.47506         0.37383
C         19.82924        16.89927        -0.54038
C         20.96297        19.12249        -0.93401
C         19.78556        18.26201        -1.17105
C         20.88119        20.48367        -0.85606
C         19.67977        21.23046        -1.04913
C         20.82858        23.34394        -0.38522
C         19.65304        22.63671        -0.81414
C         20.85382        24.71034        -0.28711
C         19.68792        25.50065        -0.51651
C         20.95353        27.66150        -0.41579
C         19.72857        26.92883        -0.49340
C         20.98322        29.03488        -0.44094
C         19.78738        29.82193        -0.50601
C         21.02182        32.02057        -0.31104
C         19.84048        31.25805        -0.47325
C         21.01868        33.40804        -0.23946
C         19.81371        34.18856        -0.27688
C         21.00396        36.37916         0.08473
C         19.81063        35.65838        -0.12881
C         20.98433        37.76204         0.30945
C         19.78602        38.46025         0.37155
O         17.19013        35.01807        -1.69621
O          0.96445        32.74127         1.77631
O          8.17383        34.09741        -1.55317
O          6.66445        31.53622        -1.63477
O          9.93555        26.21955         1.77067
O          3.71377        15.69437        -1.86272
O         17.76027        31.72413        -1.81589
O          9.30180        10.01810        -1.53015
O         14.34093        29.40602         1.40407
O         18.76647        12.64010         2.23947
O          6.45635        23.34733        -1.51790
O         19.26700        18.30081        -2.54757
O          5.49811        27.24196        -1.15842
O          2.82985        29.43670        -1.17283
O          2.84272         8.11231         1.40905
O          7.27674        26.29329         1.75111
O          6.88565         5.91658        -1.31190
O         13.65148        15.65213         1.38788
O          8.89103         5.82586         1.87258
O         16.36574        32.79436         1.24083
O          4.20661         5.63938         1.41157
O         11.09250         7.18359         2.05446
O          5.23617        34.08460        -1.50034
O         17.96678        16.18962        -1.90874
O          1.61180        27.71759         1.71922
O          7.84929        20.79118        -1.79235
O         14.98650        23.07639        -2.38083
O          1.68825        25.10536         2.21530
O         12.87670        20.96684        -2.09137
O         10.46694        35.79747         1.87586
O         12.63742        25.37910         1.83346
H         11.82537        25.72605         2.27666
O          2.18109         3.88352         1.38618
H          2.91305         4.37688         1.83238
O         17.47815        22.95521        -3.04642
H         16.63739        22.71829        -3.49889
O          2.26580        20.97714         2.19738
H          1.50309        21.48663         2.54841
O          2.78995         5.50134        -1.89243
H          2.08308         5.02170        -2.37531
O         18.72906        20.73218        -3.15709
H         19.26988        19.96722        -3.46532
O          9.94763        18.61607         1.69121
H         10.68896        18.04560         1.98927
O         15.77290        27.91936        -2.28907
H         16.60403        28.27697        -2.66991
O         14.90684        21.37011         0.90687
H         15.00718        20.45992         1.25791
O          4.96896        18.24182         1.84318
H          4.72332        19.10353         2.24446
H          1.27520         2.21977        -0.88838
H         -0.80244         3.49497        -1.27462
H         -0.99773         5.87884        -0.67884
H         -1.00347         7.86750        -0.76927
H         -0.98901        10.28965        -0.77608
H         -1.00742        12.19331        -0.68967
H         -1.00718        14.61531        -0.71808
H         -1.01992        16.50091        -0.67213
H         -1.06672        18.90204        -0.33215
H         -1.05510        20.86069        -0.17311
H         -1.06369        23.23634         0.30411
H         -0.94869        25.12118         0.10835
H         -1.26040        27.40528        -0.02652
H         -1.16736        29.68249        -0.60610
H         -1.03563        32.13041        -0.35151
H         -1.08540        33.98675         0.47302
H         -0.93310        36.43764         0.28748
H          0.35419        38.48436         0.54658
H          3.76230         2.21281        -0.44504
H          2.51890        39.68572         0.76210
H          6.24320         2.22297        -0.20018
H          5.00095        39.61814         0.84766
H          8.71247         2.25560         0.13395
H          7.44928        39.56180         0.86419
H         11.19063         2.33702         0.23820
H          9.87258        39.55385         0.75944
H         13.63697         2.36816         0.43917
H         12.36802        39.58110         0.53421
H         16.10462         2.39658         0.64448
H         14.83362        39.55861         0.53870
H         18.56725         2.42018         0.86475
H         17.31714        39.54694         0.45697
H         20.68716         3.68249         1.09929
H         21.89220         5.84366         1.28749
H         21.89174         8.29632         1.32507
H         21.88401        10.21397         1.21276
H         21.90193        12.63318         1.14786
H         21.64995        14.81897         1.47547
H         21.62971        17.14751         0.66890
H         21.93461        18.63761        -0.76341
H         21.80630        21.01943        -0.60176
H         21.75681        22.79754        -0.17571
H         21.79499        25.19998        -0.00243
H         21.90731        27.11900        -0.36512
H         21.95797        29.54014        -0.40416
H         21.99173        31.50766        -0.24302
H         21.98620        33.91752        -0.13662
H         21.97193        35.86071         0.08173
H         21.93393        38.29397         0.46134
H         19.77997        39.53910         0.58161
