         720
 CSIRO Nanostructure Databank - Neutral Graphene Oxide Data Set
C         23.99142        28.25212         3.53046
C         23.93817        29.57913         3.07993
C         23.62569        32.26440         1.85255
C         23.47236        33.52243         1.20274
C         22.87669        35.98562        -0.14990
C         22.97298        37.29519         0.15726
C         23.07481        40.21652         0.49951
C         23.14006        41.50338         0.89779
C         23.65053        44.28322         2.10291
C         23.65043        45.71414         2.25172
C         26.00475        25.17352         2.98364
C         25.02539        26.01335         3.46756
C         26.24319        27.98646         2.49139
C         25.02440        27.39622         3.14726
C         25.96904        29.27273         1.74550
C         24.86979        30.09163         2.14950
C         25.62022        31.82481         0.54457
C         24.67295        31.39540         1.52235
C         25.32485        32.98287        -0.38045
C         24.25602        33.90120         0.14491
C         25.34289        35.95151        -0.62682
C         24.04629        35.18609        -0.64131
C         25.41580        37.29986        -0.33674
C         24.21490        38.03389         0.03744
C         25.51435        40.11816         0.04126
C         24.26977        39.41822         0.22021
C         25.47347        41.62291         0.10590
C         24.49408        42.11706         1.17775
C         25.39263        44.46624         0.33845
C         24.50750        43.63141         1.26460
C         25.76583        45.77677         1.00427
C         24.67308        46.47658         1.72816
C         25.81036        48.62621         1.37219
C         24.76715        47.89291         1.89506
C         28.26325        23.36880         2.13730
C         27.98626        24.66984         1.50301
C         27.00802        25.63574         2.06503
C         28.07910        27.50573         0.82353
C         27.07626        26.98548         1.72883
C         28.01125        28.89480         0.37456
C         26.91086        29.73140         0.80890
C         27.71116        31.56226        -0.68068
C         26.74957        31.05859         0.26510
C         27.73126        32.98850        -1.03319
C         26.59651        33.72072        -0.79641
C         27.83327        35.88099        -0.72262
C         26.54629        35.19735        -1.15487
C         27.85653        37.36610        -0.75703
C         26.66851        38.03941        -0.51085
C         27.86722        40.24299        -0.74180
C         26.66931        39.48153        -0.39003
C         27.93227        41.59970        -0.54106
C         26.84926        42.29714         0.26044
C         27.83147        44.50559        -0.69009
C         26.64552        43.74235        -0.18934
C         27.79609        46.03995        -0.66486
C         26.92458        46.56535         0.48582
C         27.99130        48.78414         0.17953
C         26.89853        48.03980         0.66140
C         28.02345        50.21669         0.24689
C         30.36318        23.05564         0.91638
C         29.32229        22.56571         1.71601
C         30.44803        24.55627         0.81948
C         29.10048        25.24509         0.64537
C         30.19127        27.22734        -0.50106
C         29.09124        26.69287         0.35070
C         30.13069        28.63125        -1.04345
C         28.89907        29.37724        -0.59844
C         30.45162        31.58979        -1.94456
C         28.60697        30.63915        -1.18355
C         30.35253        33.04832        -1.75031
C         29.02498        33.70402        -1.38643
C         30.37809        35.90473        -0.97000
C         29.10180        35.11133        -0.82709
C         30.23210        37.34916        -1.34683
C         29.06743        38.05384        -1.13444
C         30.29653        40.27735        -1.44079
C         28.96350        39.53247        -1.51657
C         30.32316        41.64083        -1.25893
C         29.11299        42.38426        -0.89169
C         30.32106        44.55469        -1.28499
C         29.10985        43.76385        -0.84561
C         30.34523        45.99732        -0.80286
C         29.16505        46.69422        -0.55457
C         30.39613        48.82726        -0.38798
C         29.18816        48.09890        -0.26979
C         30.42022        50.26279        -0.23938
C         29.17111        50.92365         0.01969
C         32.80201        20.14061         0.56589
C         31.63780        20.81233         0.75654
C         32.63826        22.89627        -0.29206
C         31.44218        22.21895         0.34358
C         32.68079        24.38799        -0.28323
C         31.56108        25.12171        -0.01783
C         32.77033        27.36456        -0.44159
C         31.52063        26.60504        -0.18732
C         32.78489        28.64717        -1.22301
C         31.45778        29.33856        -1.49840
C         32.85268        31.54664        -1.81433
C         31.54353        30.83826        -1.64597
C         32.83670        33.03857        -1.69657
C         31.66094        33.71418        -1.48866
C         32.83697        35.91928        -1.74596
C         31.66775        35.17523        -1.20644
C         32.58058        37.17008        -2.22557
C         31.39214        38.01317        -1.98522
C         32.87441        40.31903        -1.99801
C         31.50735        39.54770        -1.93422
C         32.78298        41.67886        -1.32971
C         31.59513        42.37214        -1.23278
C         32.80723        44.52336        -0.92634
C         31.60638        43.80796        -1.01371
C         32.82941        45.96966        -0.84707
C         31.59580        46.69058        -0.76015
C         32.84558        48.82372        -0.65753
C         31.62033        48.11728        -0.61149
C         32.87294        50.26826        -0.58660
C         31.62970        50.97726        -0.36463
C         32.84284        53.11308        -0.44490
C         31.71066        52.41401        -0.19299
C         35.34112        18.61039         0.34476
C         35.21275        20.01563        -0.00546
C         34.00534        20.70403        -0.01443
C         35.21628        22.87070        -0.25133
C         33.92735        22.10899        -0.63419
C         35.23627        24.32568        -0.75972
C         33.98721        25.08338        -0.34361
C         35.31415        27.25592        -0.71362
C         34.04173        26.58137        -0.36122
C         35.29218        28.69876        -0.96231
C         34.10291        29.36380        -1.21645
C         35.41446        31.52563        -1.44198
C         34.14720        30.78417        -1.63558
C         35.43866        32.97713        -1.75310
C         34.12529        33.77023        -1.89735
C         35.36259        35.94546        -1.74611
C         34.15506        35.26684        -1.79597
C         35.44011        37.40552        -1.55570
C         34.35925        38.28126        -1.96265
C         35.23585        40.22624        -0.92517
C         34.08553        39.53247        -1.46752
C         35.26769        41.58681        -0.87276
C         33.98630        42.33416        -0.70484
C         35.26618        44.50430        -0.87442
C         34.06427        43.82206        -0.91491
C         35.30587        45.93651        -0.76410
C         34.06318        46.65306        -0.74767
C         35.29360        48.78202        -0.62224
C         34.08410        48.09843        -0.70359
C         35.37163        50.24951        -0.91930
C         34.07131        50.96817        -0.71209
C         35.35145        53.16963        -0.69565
C         34.06313        52.44604        -1.01639
C         35.46932        54.55768        -0.90322
C         37.82589        18.56434         0.11236
C         36.51057        17.91810         0.31571
C         37.79199        20.00884        -0.29581
C         36.45713        20.65658        -0.53889
C         37.76443        22.89775        -1.07359
C         36.44927        22.12946        -0.79760
C         37.76501        24.33336        -0.58509
C         36.49114        25.07835        -0.25740
C         37.75888        27.24506        -0.79471
C         36.47303        26.53340        -0.70712
C         37.75888        28.71789        -0.68280
C         36.56767        29.41036        -0.91890
C         37.88672        31.53446        -1.21597
C         36.57291        30.84416        -1.14073
C         37.90978        33.03966        -1.25965
C         36.63671        33.74108        -1.44988
C         37.69805        35.83431        -0.70492
C         36.70743        35.20865        -1.73119
C         37.81385        37.32087        -0.92282
C         36.52273        38.02862        -0.98253
C         37.74577        40.20472        -0.51474
C         36.43777        39.43834        -0.46987
C         37.78794        41.57358        -0.55510
C         36.55685        42.30046        -0.92866
C         37.81610        44.49591        -0.65093
C         36.55886        43.79063        -0.96320
C         37.79965        45.90744        -0.56161
C         36.54422        46.59850        -0.60127
C         37.84464        48.78981        -0.18798
C         36.52643        48.04439        -0.33539
C         37.87082        50.25628        -0.29655
C         36.55437        50.94086        -0.24228
C         37.86430        53.17586        -0.42387
C         36.54373        52.43702        -0.23356
C         37.70510        54.57046         0.22834
C         36.59337        55.26821        -0.52484
C         40.29873        15.70717        -0.31265
C         39.10403        16.39508        -0.16285
C         40.29564        18.52454        -0.28444
C         39.07937        17.80401        -0.13785
C         40.30714        19.95660        -0.44577
C         39.03640        20.64366        -0.94503
C         40.19331        22.81195        -0.12998
C         38.98984        22.11911        -0.67518
C         40.21894        24.28610        -0.52070
C         38.92949        24.99840        -0.43569
C         40.14176        27.19349         0.20218
C         39.00527        26.48397        -0.50265
C         40.18869        28.67181        -0.10333
C         39.03823        29.35703        -0.49260
C         40.27324        31.56797        -0.15778
C         39.12827        30.81197        -0.75382
C         40.09405        33.03957         0.17562
C         39.07305        33.77228        -0.68417
C         40.08769        35.86055         0.27993
C         39.03000        35.12058        -0.57297
C         40.35876        37.25553        -0.37629
C         39.07210        38.04546        -0.60241
C         40.21067        40.21660         0.17590
C         38.94845        39.45309        -0.11495
C         40.21621        41.66650        -0.07509
C         39.02070        42.32658        -0.38410
C         40.25671        44.47720        -0.43767
C         39.01586        43.76506        -0.50029
C         40.25483        45.89021        -0.61008
C         39.05746        46.61403        -0.54070
C         40.28838        48.76443        -0.45035
C         39.09842        48.06045        -0.43067
C         40.33642        50.20230        -0.25596
C         39.07981        50.93875        -0.23310
C         40.32882        53.03968         0.04107
C         39.12118        52.38220        -0.10161
C         40.32844        54.51557         0.27413
C         39.05413        55.31003         0.29560
C         40.29533        57.33490        -0.44957
C         39.13460        56.74709        -0.07293
C         42.76969        15.70459        -0.48041
C         41.53631        16.40068        -0.36301
C         42.79311        18.53327        -0.27394
C         41.54505        17.82706        -0.30497
C         42.77924        19.97712        -0.21862
C         41.50818        20.64300        -0.34635
C         42.70099        22.82926         0.01011
C         41.50199        22.12969        -0.60625
C         42.69389        24.32167         0.12214
C         41.47600        25.07448        -0.29816
C         42.73824        27.26307        -0.17184
C         41.45292        26.50444        -0.02833
C         42.63807        28.69211         0.34182
C         41.41887        29.35188         0.23633
C         42.66101        31.50483         0.52940
C         41.31315        30.80692         0.66086
C         42.66919        32.98842         0.37437
C         41.41423        33.76748         0.25327
C         42.67829        35.87474         0.45876
C         41.42164        35.12486         0.31535
C         42.65608        37.32317         0.49587
C         41.48669        38.04439         0.26552
C         42.64693        40.23811         0.46319
C         41.48389        39.47772         0.27647
C         42.65851        41.65843         0.31108
C         41.45974        42.37401         0.01012
C         42.71214        44.51969        -0.01832
C         41.47673        43.78447        -0.17548
C         42.75808        45.91859        -0.34042
C         41.55092        46.54862        -1.02413
C         42.82207        48.79982        -0.80975
C         41.52509        48.07210        -0.88662
C         42.84930        50.10357        -0.03058
C         41.55416        50.88482        -0.16461
C         42.82941        52.99522        -0.15391
C         41.59425        52.31946        -0.04985
C         42.89677        54.47501        -0.10304
C         41.61741        55.26041         0.06841
C         42.72130        57.23086        -0.91210
C         41.56365        56.63803        -0.45419
C         43.96881        16.39345        -0.48514
C         45.30891        18.49014        -0.14905
C         44.00939        17.79934        -0.34084
C         45.29506        20.03101        -0.05629
C         43.99416        20.72707        -0.18655
C         45.18894        22.90266         0.02946
C         44.00118        22.14094        -0.10038
C         45.16414        24.29394         0.30553
C         43.96364        25.06098         0.21780
C         45.16353        27.17664         0.53034
C         43.95441        26.46204         0.27458
C         45.07053        28.58857         0.96976
C         43.84406        29.37260         0.77181
C         45.10624        31.48541         1.17794
C         43.88347        30.76273         0.96103
C         45.05256        32.97285         1.35227
C         43.83081        33.73368         0.94004
C         45.18141        35.85392         0.63970
C         43.86586        35.19134         0.67831
C         45.21402        37.39636         0.66114
C         43.88699        38.04517         0.87274
C         45.20002        40.24595         0.57203
C         43.88812        39.54801         0.85020
C         45.06377        41.72367         0.85560
C         43.88639        42.39048         0.54023
C         45.13723        44.53666         0.36510
C         43.88475        43.84067         0.37823
C         45.17101        45.91235        -0.00882
C         43.96662        46.60381        -0.31134
C         45.37205        48.71818        -0.53238
C         44.10689        47.97422        -0.94702
C         45.33452        50.17328        -0.45686
C         44.10069        50.88577        -0.35009
C         45.30473        53.02303        -0.54900
C         44.07396        52.29052        -0.35770
C         45.30233        54.43098        -0.79029
C         44.05628        55.17267        -0.69989
C         43.94746        56.51428        -1.01368
C         47.73526        18.64027        -0.59577
C         46.59144        17.90688        -0.56933
C         47.76426        20.08526        -0.43348
C         46.53977        20.75689        -0.32846
C         47.72333        22.80593         0.27094
C         46.48175        22.26737        -0.45765
C         47.72106        24.32402         0.46144
C         46.41569        25.04365         0.52690
C         47.65350        27.23365         0.57746
C         46.39103        26.52002         0.52947
C         47.63370        28.68013         0.72483
C         46.39363        29.35657         1.13574
C         47.59494        31.52971         1.06252
C         46.34478        30.82830         1.15447
C         47.66798        32.96879         1.37444
C         46.33567        33.75221         1.49640
C         47.64509        35.87484         1.08881
C         46.37239        35.15939         1.10893
C         47.70753        37.40406         1.15022
C         46.42286        38.14775         1.10969
C         47.60542        40.28519         1.60738
C         46.39901        39.51504         1.17436
C         47.57509        41.73210         1.08689
C         46.25998        42.49249         1.32866
C         47.59380        44.42456         0.30852
C         46.35227        43.85255         0.65846
C         47.53117        45.68074        -0.34804
C         46.42809        46.53553        -0.28726
C         47.87670        48.69105        -0.34271
C         46.54643        47.98732        -0.43386
C         47.83027        50.19071        -0.33980
C         46.53759        50.90163        -0.41033
C         47.79227        53.04515        -0.59404
C         46.54773        52.32371        -0.49317
C         47.74162        54.40799        -0.92199
C         46.52581        55.08035        -1.03500
C         50.27837        20.23783        -0.72633
C         49.02874        20.80463        -0.47472
C         50.24611        22.91313         0.33057
C         49.02292        22.32080        -0.40041
C         50.23333        24.43993         0.22232
C         48.90301        25.12075        -0.05868
C         50.10458        27.28828         0.12353
C         48.85573        26.55810         0.38256
C         50.02465        28.77676         0.08767
C         48.75990        29.44755         0.46318
C         49.94739        31.66000         0.24962
C         48.75571        30.87049         0.66324
C         50.03728        33.08831         0.60214
C         48.90708        33.70321         1.09205
C         50.17945        35.90642         1.36801
C         48.90226        35.14248         1.43866
C         50.17245        37.39554         1.32221
C         48.97409        38.07391         1.53458
C         50.24756        40.20850         1.85773
C         48.92171        39.52066         1.88257
C         50.41198        41.53254         2.07125
C         48.64667        42.68739         1.54108
C         50.22976        44.50490         0.91824
C         48.85100        43.86910         0.87569
C         50.49561        45.93885         0.49291
C         49.41840        46.77161        -0.06921
C         50.17684        48.82966         0.96375
C         49.11454        48.05362         0.24413
C         50.17856        50.32650         0.80810
C         48.95752        50.99729         0.23291
C         50.26819        53.02822        -0.14462
C         49.04745        52.39284        -0.24704
C         51.46407        21.00599        -0.73078
C         52.70332        23.09842        -0.16543
C         51.52662        22.33754        -0.26152
C         52.65447        24.34203         0.70537
C         51.39182        25.14355         0.38341
C         52.58287        27.33262         0.38239
C         51.42043        26.60607         0.31514
C         52.58560        28.82478         0.40624
C         51.28526        29.53434         0.32007
C         52.50783        31.71859        -0.14251
C         51.24039        30.96867        -0.05538
C         52.44354        33.15029        -0.05807
C         51.29500        33.77921         0.42885
C         52.68719        35.92999         0.77862
C         51.42289        35.15618         0.98767
C         52.65336        37.40369         0.94269
C         51.46331        38.04845         1.25487
C         52.84463        40.16849         1.78108
C         51.51699        39.44439         1.71047
C         52.85123        41.70198         2.04562
C         51.55743        42.30281         1.47473
C         52.72814        44.56033         1.69546
C         51.41176        43.81984         1.64491
C         52.76240        46.03431         1.45652
C         51.65095        46.68957         1.03621
C         52.73301        48.95952         1.30355
C         51.49322        48.15695         1.24263
C         52.72428        50.31976         1.00642
C         51.47629        51.03630         0.69903
C         51.45419        52.34919         0.27192
C         55.11999        23.36504        -0.54060
C         53.93487        22.75152        -0.81025
C         55.26685        24.43045         0.52007
C         53.94495        25.18283         0.71423
C         55.18231        27.51003         0.42883
C         53.89521        26.67872         0.62131
C         54.97276        28.89372        -0.18119
C         53.79575        29.57378        -0.03592
C         54.90721        31.73708        -0.66459
C         53.70375        31.01355        -0.29724
C         54.83107        33.20029        -1.09464
C         53.53868        34.00407        -0.68720
C         54.93142        36.06966        -0.20063
C         53.80275        35.33067         0.01085
C         55.03954        37.46199         0.23182
C         53.90009        38.13143         0.77295
C         55.19293        40.22755         0.90116
C         54.00343        39.50235         1.13317
C         55.31692        41.61169         1.55001
C         54.04293        42.43888         1.50230
C         55.20013        44.59002         1.09742
C         54.00567        43.80212         1.52038
C         55.28574        46.03462         1.48914
C         54.00544        46.77702         1.78008
C         55.26761        48.93372         1.27283
C         54.00137        48.30978         1.83866
C         55.19472        50.30996         0.99563
C         53.98738        50.99900         0.94384
C         57.71259        24.77585         0.26066
C         56.44654        25.32482         0.17111
C         57.53963        27.52784        -0.38609
C         56.25715        26.72173        -0.36845
C         57.48121        29.03807        -0.32947
C         56.14438        29.56226        -0.87243
C         57.27404        31.75831        -1.50391
C         56.08352        31.07003        -0.86721
C         57.34367        33.23842        -1.17005
C         56.11073        33.92359        -0.62306
C         57.40951        36.10411        -0.72640
C         56.07290        35.43244        -0.96015
C         57.45757        37.48275        -0.42108
C         56.24318        38.18545         0.01787
C         57.48167        40.36640        -0.18340
C         56.30578        39.56794         0.33715
C         57.71675        41.71108         0.47599
C         56.56381        42.39637         1.11989
C         57.74555        44.62613         0.70367
C         56.48065        43.86778         0.85866
C         57.71686        46.05334         0.82712
C         56.52713        46.77608         1.16262
C         57.73870        48.88292         0.90595
C         56.50346        48.19422         1.14459
C         58.86845        25.50864        -0.05929
C         59.98890        27.68446        -0.55080
C         58.78166        26.90223        -0.33150
C         59.93771        29.00149        -0.89124
C         58.68702        29.72624        -0.95047
C         59.76209        31.84519        -1.67999
C         58.60584        31.05576        -1.31190
C         59.71147        33.20438        -1.72161
C         58.51583        33.93111        -1.31368
C         59.82709        36.03504        -0.91509
C         58.58713        35.36908        -0.99665
C         59.88375        37.40101        -0.68087
C         58.71423        38.15896        -0.46357
C         59.89746        40.35618        -0.61037
C         58.77273        39.60750        -0.34925
C         59.91670        41.79298        -0.55019
C         58.85944        42.51331        -0.04528
C         60.07494        44.71347         0.00170
C         58.89160        43.95345         0.23244
C         60.09027        46.08109         0.17559
C         58.91636        46.78212         0.55523
C         58.90204        48.20304         0.64515
O         48.18933        49.46383        -1.56862
O         47.10016        33.35797         2.67084
O         47.23474        24.66081         1.77641
O         31.54017        22.41191        -1.14185
O         52.33553        39.47442         2.95167
O         57.69051        41.92174         1.91842
O         38.64817        37.88666        -2.00523
O         33.56591        31.02304        -2.98002
O         45.70436        28.75405         2.27777
O         37.09709        48.35471         1.01470
O         40.30252        31.21125        -1.55140
O         28.45166        35.27884         0.46854
O         31.13729        38.85505        -3.18076
O         39.52142        35.86753         1.56757
O         42.07862        48.82058        -2.05261
O         47.87264        36.67450        -0.12877
O         41.00057        24.67482        -1.67353
O         33.55275        37.79872        -3.00851
O         32.14016        27.42993         0.88913
O         53.94998        25.99027         1.93731
O         26.81606        43.93631        -1.62060
O         51.91253        29.34375         1.62864
O         44.06333        33.39132         2.35984
O         32.13431        28.57049        -2.53188
O         38.72398        26.87166        -1.87839
O         42.93152        32.12220        -0.78211
O         36.32665        51.66663         1.00266
O         27.04177        45.78229         1.72420
O         34.85084        33.32216        -3.08284
O         43.82078        38.82577         2.11288
O         49.40827        42.33123         2.62774
O         49.59360        35.47277         2.66997
O         45.34111        36.69173        -0.58150
O         36.68926        43.01423        -2.22619
O         48.01817        39.95223         2.95273
O         34.14063        25.85682         0.91219
O         50.49146        48.41001         2.32694
O         29.49405        33.71402        -2.76814
O         52.44198        35.20384         2.05068
O         31.29344        35.59626         0.15488
O         36.23773        21.18461        -1.88601
O         50.32678        31.31482        -1.14337
O         42.47988        23.46388         1.30255
O         38.14638        32.20705        -2.48807
O         39.31105        39.73301         1.26652
O         55.38672        41.37398         2.94781
O         55.58083        44.24510        -0.27704
O         50.02542        28.03645        -1.17770
O         49.15720        50.92198         1.68316
O         50.78519        44.81306        -0.41994
O         42.52511        55.06335         1.20196
O         51.88993        44.30359         2.90548
O         45.37611        19.17731         1.13755
O         48.65811        46.11863        -1.03796
O         54.79453        46.20670         2.87025
O         39.72444        54.94922         1.55598
O         29.84265        27.46746        -1.89370
O         38.02089        19.68362         1.09362
O         28.01162        24.52541         0.01880
O         29.28876        30.95641        -2.35697
O         33.94287        52.53255        -2.51177
H         33.02214        52.27617        -2.73852
O         24.78336        32.36191        -1.59975
H         24.22645        33.05459        -2.04059
O         24.91213        42.05895        -1.16578
H         25.56238        41.84959        -1.87153
O         52.87872        41.89129         3.45779
H         53.81471        41.65737         3.72210
O         57.52588        29.43674         1.07451
H         58.22581        28.91349         1.51815
O         57.06703        40.75058        -1.54738
H         57.06399        39.93907        -2.09729
O         39.82590        27.07031         1.63316
H         40.48909        27.58763         2.13925
O         42.95777        49.69075         1.37018
H         42.99539        50.49994         1.92325
O         54.85182        33.13590        -2.54634
H         55.01425        34.06446        -2.86052
O         40.07909        22.78188         1.31970
H         40.02379        21.84665         1.60985
O         50.18297        22.55597         1.71884
H         51.00861        22.89686         2.14773
O         24.56932        44.81058        -0.79953
H         24.42112        43.96910        -1.29525
O         41.62156        22.26253        -2.04134
H         40.81862        21.86885        -2.45173
O         47.73106        41.55355        -0.35344
H         47.80380        42.43681        -0.77862
O         37.09958        35.68684         0.59745
H         37.85122        35.82956         1.26004
O         55.75096        26.55885        -1.72754
H         55.85178        27.43014        -2.19484
O         37.98591        53.43280        -1.85533
H         38.02154        52.57221        -2.32448
O         23.77057        34.81567        -2.04208
H         24.53179        35.13071        -2.58913
O         52.89571        34.44341        -1.92665
H         52.77367        33.64857        -2.49211
O         40.91924        30.81098         2.05033
H         40.46243        31.67172         2.23694
O         46.14938        42.68526         2.76127
H         45.26581        43.05913         2.95946
O         56.13222        33.78828         0.81527
H         56.93829        34.22678         1.15973
O         44.27382        47.67541        -2.36817
H         44.19890        48.51874        -2.86418
O         55.80744        35.57669        -2.39435
H         55.57728        36.51444        -2.56313
O         37.32996        35.36718        -3.03145
H         36.86327        34.77972        -3.66492
O         45.38831        40.15433        -0.87412
H         46.26400        40.56699        -1.07647
O         33.11397        40.60098        -3.39433
H         32.94054        39.76625        -3.88748
O         33.89429        21.99456        -2.07649
H         32.96334        21.77752        -2.32010
O         49.16287        22.75290        -1.76653
H         48.28074        22.71453        -2.20671
O         27.20853        46.50469        -1.89738
H         26.67655        45.75604        -2.25831
O         24.92729        41.58023         2.46795
H         24.38318        41.99739         3.16875
O         27.11759        28.40587         3.62224
H         26.57807        28.98884         4.19891
O         52.51351        23.86384         2.07760
H         52.74649        24.62449         2.65980
O         51.55127        42.01657         0.04747
H         51.41983        42.85129        -0.45624
O         42.94876        27.39235        -1.63134
H         42.12724        27.75685        -2.02777
O         37.22780        54.41237         1.57582
H         38.02196        54.37108         2.16008
O         55.56570        23.76600         1.77223
H         55.40311        24.42196         2.48526
O         35.69135        50.34896        -2.36708
H         35.14036        51.08597        -2.73722
O         38.98711        20.42639        -2.38617
H         38.32434        21.06543        -2.75047
O         41.71344        46.22905        -2.43182
H         42.49839        46.74474        -2.74241
O         35.30819        24.29288        -2.20095
H         34.75498        23.52459        -2.50899
O         55.75043        27.70980         1.73851
H         55.09327        28.17671         2.29588
O         39.53259        33.10317         1.52957
H         39.48412        34.08874         1.76258
O         30.21530        44.63337        -2.74889
H         31.01964        45.08473        -3.08203
O         56.07524        29.18376        -2.29053
H         56.47919        29.93030        -2.81536
O         27.31981        42.31546         1.62390
H         26.62266        41.94405         2.21916
O         48.71148        25.21204        -1.50279
H         49.34482        25.87514        -1.85472
O         30.86637        24.98435         2.18304
H         31.45905        25.76730         2.10368
O         36.54341        25.11736         1.20054
H         35.75963        25.63539         1.51897
O         33.73185        42.20835         0.76506
H         32.92721        42.73354         0.96968
O         36.19541        39.24519         0.97361
H         36.04684        40.12722         1.37825
O         46.52726        22.61253        -1.87790
H         45.66798        22.37192        -2.28536
O         40.91670        36.91546        -1.67472
H         40.19649        37.01641        -2.34467
O         47.66114        22.17623         1.56213
H         47.52018        22.87790         2.23934
O         57.03042        31.64126        -2.96100
H         56.20224        32.17101        -3.12836
O         26.45328        35.27796        -2.61823
H         27.09162        34.63996        -3.00747
O         35.25710        22.83453         1.18107
H         35.90366        23.51875         1.50040
O         54.02749        48.66181         3.26024
H         54.48926        47.92384         3.72377
O         37.82727        23.02562        -2.53922
H         37.03418        23.55375        -2.80673
O         28.53833        39.56985        -2.91092
H         29.32073        39.29791        -3.45053
H         23.16713        27.86186         4.14580
H         23.08700        30.19841         3.39328
H         22.90112        31.99905         2.63394
H         22.66718        34.18751         1.55025
H         21.90020        35.48175        -0.10718
H         22.07045        37.82958         0.48497
H         22.08789        39.75521         0.35276
H         22.22466        42.08308         1.08820
H         22.92494        43.70378         2.69724
H         22.85053        46.18797         2.83833
H         25.96274        24.10565         3.23647
H         24.20298        25.60604         4.07413
H         25.81011        49.71306         1.53539
H         23.96967        48.40766         2.45097
H         27.55177        22.96115         2.86897
H         27.10125        50.76485         0.48312
H         29.34052        21.51667         2.04960
H         29.13685        52.01984         0.07477
H         32.85129        19.10568         0.93501
H         30.80376        20.29676         1.25365
H         32.86395        54.20117        -0.28728
H         30.82922        52.95691         0.17651
H         34.42372        18.04691         0.56864
H         34.62594        55.09816        -1.35934
H         36.48587        16.83666         0.51527
H         36.60612        56.35813        -0.66338
H         40.29836        14.60885        -0.35782
H         38.16627        15.82933        -0.07331
H         40.29756        58.39464        -0.74647
H         38.21219        57.34426        -0.06051
H         42.76375        14.60741        -0.54684
H         42.69377        58.27594        -1.25325
H         44.90907        15.82859        -0.54885
H         44.81634        57.05575        -1.41224
H         48.67497        18.13127        -0.85349
H         46.62820        16.84567        -0.85519
H         48.67273        54.97520        -1.05639
H         46.54182        56.15598        -1.25533
H         50.37121        19.16424        -0.94963
H         50.36799        54.08455        -0.43151
H         52.39670        20.50527        -1.03332
H         52.38995        52.92200         0.21464
H         56.02599        23.05429        -1.08074
H         53.91752        21.94058        -1.55427
H         56.10840        50.87500         0.76362
H         54.01700        52.07784         0.74380
H         57.81372        23.73478         0.60154
H         57.76720        49.97927         0.94854
H         59.85549        25.02762        -0.01333
H         60.95619        27.16316        -0.50880
H         60.87250        29.52315        -1.14009
H         60.71671        31.34207        -1.88927
H         60.61328        33.76513        -2.00172
H         60.76490        35.48373        -1.06219
H         60.86459        37.89456        -0.66487
H         60.84363        39.86008        -0.87153
H         60.84241        42.29563        -0.86459
H         60.99144        44.20647        -0.32925
H         61.01139        46.65064        -0.01457
H         59.83634        48.75646         0.47251
