         261
 CSIRO Nanostructure Databank - Neutral Graphene Oxide Data Set
C        -11.19135         0.52542         0.92659
C        -10.11899         1.36881         0.25857
C         -8.84702         0.54541         0.19581
C         -7.54048         1.23814         0.10588
C         -6.52967         0.60380        -0.82440
C         -5.17665         1.32074        -0.96136
C         -3.87190         0.62990        -0.71166
C         -2.56731         1.31289        -1.04825
C         -1.26602         0.62733        -0.78751
C          0.02239         1.30261        -1.23637
C          1.31672         0.55598        -1.13208
C          2.62320         1.29357        -1.41779
C          3.93637         0.59698        -1.21357
C          5.24740         1.34564        -1.40020
C          6.55395         0.59074        -1.17335
C          7.81141         1.34774        -0.86373
C          9.00833         0.60001        -0.32206
C          9.85843         1.28890         0.70051
C         10.71819         0.44210         1.55983
C         -9.87581         2.77419         0.78933
C         -8.68449         3.42068         0.77784
C         -7.43140         2.69352         0.43701
C         -6.17733         3.40525         0.06830
C         -5.14821         2.83336        -0.86684
C         -3.83483         3.55481        -1.00005
C         -2.60031         2.77756        -1.43029
C         -1.30557         3.50998        -1.65799
C          0.01727         2.77164        -1.66141
C          1.31725         3.52748        -1.80464
C          2.60452         2.81749        -1.40001
C          3.89956         3.57799        -1.34571
C          5.24168         2.85586        -1.48530
C          6.51098         3.60879        -1.10351
C          7.73301         2.84471        -0.63486
C          8.46176         3.35850         0.57036
C          9.39903         2.60576         1.19332
C         -8.59580         4.92082         1.08133
C         -7.37879         5.63276         0.47490
C         -6.09832         4.83539         0.58042
C         -4.79931         5.58135         0.28466
C         -3.58452         4.85445        -0.26844
C         -2.34635         5.62845        -0.67688
C         -1.27809         5.02861        -1.57103
C         -0.00268         5.81012        -1.83165
C          1.32089         5.05345        -1.98163
C          2.62690         5.81195        -1.95409
C          3.93286         5.05057        -1.69555
C          5.18691         5.77709        -1.28850
C          6.34794         5.05122        -0.65147
C          7.10766         5.56002         0.55108
C          7.97936         4.58607         1.33215
C         -7.38754         6.96191         0.25264
C         -6.17429         7.75111        -0.18909
C         -4.86054         7.06920         0.19431
C         -3.60299         7.83777        -0.11387
C         -2.34659         7.12383        -0.50773
C         -1.22345         7.97357        -1.04386
C          0.03484         7.32430        -1.54849
C          1.35423         8.03236        -1.28200
C          2.63524         7.37202        -1.88934
C          3.91166         7.91660        -1.28010
C          5.05681         7.23610        -1.08552
C          6.26947         7.90876         0.76344
C          6.68482         6.75370         1.33924
C         -6.11805         9.18001         0.31551
C         -4.98727         9.89298         0.19807
C         -3.73861         9.31400        -0.45402
C         -2.45198        10.05411        -0.03355
C         -1.17624         9.25878        -0.27591
C         -0.00151         9.67455         0.23254
C          1.31396         9.15409        -0.23763
C          2.43301         9.50499         0.67480
C          3.72840         9.58189         0.29440
C          4.80234         9.88096         1.26037
C          5.89224         9.11829         1.50750
C        -11.24844        -0.80998         0.74117
C        -10.21621        -1.57877        -0.00920
C         -8.95062        -0.85718        -0.33823
C         -7.65784        -1.64374        -0.29742
C         -6.38491        -0.88677        -0.48567
C         -5.16616        -1.33183         0.27260
C         -3.86332        -0.57547         0.18269
C         -2.51696        -1.16384         0.76382
C         -1.19844        -0.50656         0.20751
C          0.12331        -1.22011         0.34170
C          1.32825        -0.88570        -0.57997
C          2.64582        -1.26001         0.10100
C          3.94088        -0.59634        -0.28987
C          5.24931        -1.34077        -0.10018
C          6.54482        -0.81660        -0.62941
C          7.81435        -1.67849        -0.79770
C          9.07218        -0.91193        -0.46606
C         10.28157        -1.63000         0.15577
C         10.93263        -0.85103         1.28532
C        -10.13101        -3.06906         0.00552
C         -8.93735        -3.70082         0.20600
C         -7.75732        -2.85023         0.68624
C         -6.39848        -3.59631         0.84486
C         -5.14341        -2.78554         0.66369
C         -3.81205        -3.47881         0.48446
C         -2.53049        -2.70519         0.60727
C         -1.20356        -3.42579         0.50216
C          0.08916        -2.69217         0.70842
C          1.37884        -3.48142         0.62391
C          2.66734        -2.69504         0.58194
C          3.92080        -3.48210         0.45620
C          5.14128        -2.83061        -0.07669
C          6.36860        -3.65337        -0.20158
C          7.75168        -3.19187        -0.52429
C          8.79424        -3.71579         0.45199
C          9.93389        -2.99641         0.71369
C         -8.76526        -5.12683         0.05835
C         -7.57186        -5.78516         0.20598
C         -6.29396        -5.12176         0.68823
C         -5.11407        -5.59480        -0.14205
C         -3.83651        -4.82805        -0.16969
C         -2.50732        -5.49515        -0.45270
C         -1.21997        -4.77346        -0.17346
C          0.06813        -5.55220        -0.26117
C          1.34471        -4.94681         0.28024
C          2.62109        -5.53184        -0.32641
C          3.88395        -4.98544         0.34254
C          5.12850        -5.77811         0.09025
C          6.47115        -5.15595        -0.20042
C          7.55033        -5.86372         0.58774
C          8.67141        -5.06692         0.91642
C         -7.48295        -7.21858         0.01833
C         -6.27787        -7.86794         0.01845
C         -5.01493        -7.06599         0.20489
C         -3.79081        -7.75369        -0.38374
C         -2.53058        -6.99428        -0.68757
C         -1.22449        -7.88541        -0.81513
C          0.06454        -7.01271        -0.59874
C          1.31569        -7.72723         0.02076
C          2.57979        -7.06402        -0.52987
C          3.81517        -7.90857        -0.61928
C          5.03666        -7.27985        -0.02247
C          6.27221        -8.04738         0.33924
C          7.48881        -7.25674         0.68031
C         -6.14764        -9.31017         0.11907
C         -4.95357        -9.94437         0.13694
C         -3.66783        -9.28561        -0.28797
C         -2.41709        -9.71430         0.44031
C         -1.20668        -9.10042         0.15146
C          0.01759        -9.79608         0.35923
C          1.28554        -9.24140         0.01838
C          2.46084        -9.97509         0.00274
C          3.73893        -9.44570        -0.62846
C          5.05591       -10.11451        -0.25525
C          6.22662        -9.49864         0.00505
O          1.23906        -7.37283         1.35582
O         -2.56664         7.56324         0.87146
O         -6.88008        -1.80911        -1.50406
O          3.51043        -2.94055         1.74176
O         -6.26949         2.69594         1.39127
O         -3.50087        -7.30233        -1.72855
O          8.75134        -1.32399        -1.83234
O          3.15053         3.31325        -0.11389
O          4.95745         5.35409        -2.67543
O          0.54582         0.52492        -2.36372
O          5.29173         2.04962        -2.67496
O         -3.14005        -3.39741         1.76710
O          2.02782         5.37784        -3.20367
O          4.61438        -5.51182         1.45786
O          5.19530        -7.82471         1.33498
O          7.70650         3.52563        -1.92139
O          0.34208        -6.08152        -1.61178
O         -4.52950         0.59312        -2.03779
O          3.24973        -0.28508         0.97521
O          3.17519        -7.38410        -1.82763
O          7.59450         5.80380        -0.78587
O         -5.93544        -5.77734         1.97929
O          5.49109        -3.34222        -1.37838
O          4.02694         9.31569        -1.04991
O         -2.40133         4.85376         0.57282
O         -5.68036        -3.07658         1.98344
O          7.50601         0.89492        -2.21008
O         -4.66208         6.42767         1.47759
O         -7.92475         0.53494         1.32282
O          1.41336        -4.53515         1.64270
O         -9.92061        -1.06467        -1.39316
O         -0.99973         5.58137        -2.87236
O         -4.80336        -0.37353         1.29416
O          0.68860         2.91128        -2.94793
O         -2.15651         3.07282        -2.76731
O          1.40171         9.43815        -1.67603
O         -0.25106        -0.20771         1.28830
O         -4.74710        -4.92699        -1.34167
O         -0.89150         8.02900        -2.44343
O          6.20473        -0.74994         0.82315
O         10.24828         1.25407        -0.71711
O          3.25666         0.53973        -2.49617
O          7.94608        -4.05016        -1.74675
O         -1.17094        -8.42897        -2.06572
O          7.01612        -5.26214        -1.59654
O         -6.03007         4.52311         2.01094
O         -4.87275         3.64378        -2.03178
O         -4.91656        -6.85927         1.67803
O         -0.63601        -3.21149         1.84064
O          6.16039         7.98912        -0.63187
O         -1.98598         0.37677        -2.02314
O         -1.83418        -4.70998        -1.49418
O         -8.13883        -2.31378         1.90470
O         -7.14206         0.73184        -2.11856
H         -6.54268         0.31580        -2.77780
O         -6.20282         7.77769        -1.64020
H         -5.53166         8.43147        -1.95781
O         -3.88644         9.40757        -1.88757
H         -3.53804        10.29407        -2.14469
O          3.53726        -9.88118        -2.00571
H          3.05237        -9.15857        -2.47351
O         11.26767        -1.84342        -0.87785
H         10.78728        -1.89560        -1.73459
O          7.26612         4.14990         2.50629
H          6.55944         3.52350         2.24863
O        -10.53577         1.58910        -1.11837
H        -10.55379         0.70258        -1.56062
O          2.70826        -4.89860        -1.62576
H          2.88907        -5.58584        -2.30836
O         -2.50492        -0.86932         2.14913
H         -3.01003        -1.57219         2.61833
O         -9.80399         5.56898         0.70609
H         -9.93541         5.46390        -0.25850
O          2.63875         7.78791        -3.26385
H          2.49548         8.75971        -3.27549
O          1.23001        -1.80261        -1.68341
H          0.86481        -1.30972        -2.45960
O         -3.38555        -9.83597        -1.60316
H         -2.66715        -9.27315        -2.03309
O         -2.40008        11.25990        -0.80978
H         -1.46677        11.54475        -0.89648
H         11.62819        -1.42519         1.91610
H         11.22483         0.91997         2.41194
H          9.82894         2.96711         2.14038
H          8.87196         5.14735         1.70494
H          6.78074         6.68476         2.43165
H          6.51388         9.37559         2.38045
H          4.59150        10.70686         1.95983
H          2.15775         9.71677         1.71738
H          0.03187        10.57590         0.86616
H         -2.51624        10.31814         1.06100
H         -4.95406        10.94184         0.53050
H         -7.02061         9.63221         0.75475
H         -8.34433         7.50420         0.32730
H         -8.49944         5.03443         2.19501
H        -10.77512         3.37098         1.01484
H        -11.97957         1.02897         1.50658
H        -12.05903        -1.38779         1.21096
H        -11.02508        -3.64838        -0.27601
H         -9.64988        -5.70952        -0.24619
H         -8.41568        -7.79053        -0.10129
H         -7.07000        -9.88810         0.28306
H         -4.92001       -11.03503         0.27721
H         -2.42245       -10.65986         1.00968
H         -0.03213       -10.84564         0.69840
H          2.40492       -11.06581         0.15989
H          5.06399       -11.20366        -0.41650
H          7.14304       -10.09678         0.12256
H          8.36226        -7.80241         1.07110
H          9.49805        -5.49483         1.50348
H         10.71811        -3.47526         1.32207
