         234
 CSIRO Nanostructure Databank - Neutral Graphene Oxide Data Set
C          1.13566         2.06076         0.35024
C          1.12503         3.44002         0.13686
C          2.33988         1.36350         0.30153
C          2.31103         4.13141        -0.14838
C          1.08695         6.39846        -0.42790
C          1.12556         7.74398        -0.59810
C          2.30669         5.62598        -0.14394
C          2.35497         8.51323        -0.54826
C          1.16282        10.72867        -0.55276
C          1.16218        12.14575        -0.46414
C          2.31740         9.96106        -0.47084
C          2.31712        12.89024        -0.26474
C          1.16351        15.13152        -0.30085
C          1.15132        16.48802        -0.20987
C          2.38142        14.34345        -0.27872
C          2.39060        17.26920        -0.27958
C          2.45075        18.66842         0.16722
C          3.53752         2.03392         0.00954
C          3.53514         3.42065        -0.22162
C          4.79676         1.21294        -0.09527
C          4.79352         4.10186        -0.66033
C          3.60175         6.37356        -0.32205
C          3.58054         7.83942        -0.52997
C          4.80167         5.60570        -0.78520
C          4.84993         8.53072        -0.49891
C          3.57693        10.63721        -0.11893
C          3.56568        12.15499        -0.00830
C          4.86776         9.94148        -0.32809
C          4.84343        12.86608        -0.08155
C          3.61124        14.98722        -0.09477
C          3.70305        16.45459        -0.18956
C          4.85219        14.24909         0.03679
C          4.87450        17.14130         0.35769
C          3.63759        19.27269         0.42915
C          4.88865        18.53747         0.51033
C          6.08438         2.00713        -0.05649
C          6.09876         3.39662        -0.48767
C          7.21507         1.37519         0.38455
C          7.29566         4.08953        -0.54823
C          6.09863         6.36393        -0.85387
C          6.08552         7.82444        -0.54349
C          7.36595         5.56458        -0.75175
C          7.29242         8.51943        -0.36595
C          6.07870        10.64138        -0.23960
C          6.11792        12.14276        -0.38877
C          7.30670         9.93245        -0.21378
C          7.33182        12.80367         0.20511
C          6.09097        14.91598         0.36939
C          6.02600        16.33954         0.75687
C          7.28345        14.18644         0.51424
C          7.33383        17.09880         1.02572
C          6.11258        19.23074         0.74196
C          7.33981        18.55952         0.84027
C          8.54446         1.93110         0.14054
C          8.57227         3.36448        -0.42403
C          9.74539         1.43470         0.82894
C          9.88431         4.07799        -0.26304
C          8.59432         6.28673        -0.27469
C          8.56345         7.77592        -0.16738
C          9.93343         5.57838        -0.32315
C          9.84347         8.52206        -0.22674
C          8.55468        10.64110        -0.02245
C          8.54608        12.05004         0.20945
C          9.80324         9.93045        -0.08917
C          9.78812        12.75007         0.32688
C          8.53895        14.84400         1.08251
C          8.59522        16.35812         0.93322
C          9.76617        14.26639         0.37280
C          9.78224        17.04480         0.89390
C          8.59212        19.21044         0.75054
C          9.81303        18.50097         0.78791
C         10.99097         1.99420         0.57190
C         11.07349         3.16843        -0.30061
C         12.20484         1.49301         1.13325
C         12.28779         3.57966        -0.75903
C         11.12335         6.42006        -0.67073
C         11.07275         7.84134        -0.42811
C         12.31306         5.88749        -1.15364
C         12.30291         8.58936        -0.46377
C         11.03934        10.65887        -0.06899
C         10.99462        12.08793         0.13063
C         12.26518         9.99535        -0.27232
C         12.19801        12.84929        -0.11863
C         11.07952        14.80462         0.98432
C         11.07388        16.33414         1.09410
C         12.19946        14.30981         0.08690
C         12.36407        17.09889         0.98329
C         11.04550        19.18374         0.64489
C         12.30974        18.54420         0.63034
C         13.45610         2.05001         0.81020
C         13.54032         3.06421        -0.24127
C         14.64332         1.69170         1.47375
C         14.74140         3.64867        -0.54959
C         13.56384         6.58956        -1.07841
C         13.55539         7.91841        -0.65199
C         14.82682         5.87824        -1.14525
C         14.83067         8.52681        -0.09466
C         13.53146        10.78307        -0.33064
C         13.33021        12.24049        -0.60723
C         14.85854        10.05345        -0.27680
C         14.42632        13.07996        -1.00057
C         13.49059        15.06887        -0.03306
C         13.67865        16.33175         0.79135
C         14.67632        14.33488        -0.52207
C         14.78182        17.15379         0.18480
C         13.49404        19.23013         0.36240
C         14.76006        18.55708         0.18734
C         15.90356         2.29814         1.19736
C         16.06997         3.23866         0.01077
C         17.01400         1.91944         1.91294
C         17.15005         4.32850         0.16226
C         16.03778         6.39529        -0.73561
C         16.13325         7.82228        -0.46447
C         17.21850         5.56615        -0.42995
C         17.34995         8.46189        -0.31436
C         16.20249        10.63158        -0.58245
C         16.33729        11.95656        -0.99522
C         17.39454         9.91548        -0.28724
C         17.42267        12.78458        -0.63795
C         16.01764        14.99550        -0.65827
C         15.99725        16.45501        -0.29239
C         17.33432        14.23026        -0.57488
C         17.26579        17.17004         0.02650
C         15.96383        19.29065        -0.05434
C         17.23283        18.65807        -0.10816
C         18.31018         2.59059         1.72534
C         18.37055         3.82570         0.86982
C         19.55048         1.82030         1.93106
C         19.67981         4.22819         0.32241
C         18.54827         6.25674        -0.78761
C         18.66893         7.69390        -0.19853
C         19.75751         5.38116        -0.47917
C         19.86574         8.52869        -0.70272
C         18.61966        10.64133        -0.27807
C         18.61961        12.07623        -0.32608
C         19.87517         9.93315        -0.41620
C         19.83246        12.82469        -0.21138
C         18.51679        14.92365        -0.32146
C         18.52540        16.39217        -0.07173
C         19.79149        14.25320        -0.20092
C         19.78001        17.13901        -0.37972
C         18.43238        19.34957        -0.17858
C         19.72446        18.66033        -0.36768
C         20.72383         2.23989         1.40787
C         20.82566         3.43699         0.59016
C         22.05684         3.77422        -0.00408
C         21.00601         5.67663        -1.04597
C         21.03718         8.02116        -1.29069
C         22.14308         4.87972        -0.84046
C         22.21368         8.78986        -1.41592
C         21.07689        10.69677        -0.47457
C         21.06959        12.12438        -0.18955
C         22.26130        10.08406        -0.93598
C         22.25044        12.86537        -0.00039
C         21.01573        14.98144        -0.04351
C         21.05200        16.44421        -0.10691
C         22.21257        14.25213         0.10086
C         22.19320        17.20593         0.01163
C         20.98523        19.34461        -0.06144
C         22.14614        18.64048         0.05294
O         14.31225        10.68849         0.94970
O         14.79632         4.55025        -1.62077
O         11.76584        16.82411         2.29577
O         15.35655        12.46865        -1.83235
O          8.42183         6.90655         1.04004
O         10.03117         4.86372         0.97595
O          8.73369         2.22336        -1.30309
O         19.74988        17.87263        -1.63874
O         17.94652        16.72651         1.25116
O         18.29660         3.95199         2.33830
O         12.43578        15.17061        -1.07599
O          6.88780         6.03922        -2.05281
O          6.50087        16.60460         2.13639
O         15.97481        16.02933        -1.71395
O          3.51487        11.28915         1.20272
O         21.14892         6.76703        -1.89919
O         12.33381         4.61021        -1.71193
O          4.57895         4.77381        -1.96023
O          3.20716        16.99240        -1.46132
O          3.10624         6.06611         1.02848
O         14.72701         8.24628         1.33291
H         14.36244         9.06427         1.75402
O         18.90353         7.50605         1.21878
H         18.82133         8.37326         1.66729
O         18.47383         6.44448        -2.22131
H         18.55226         5.57177        -2.65807
O         14.16135        15.90503         2.09035
H         13.38934        15.95738         2.70680
O          8.59290        14.54158         2.49964
H          7.85325        15.03967         2.91904
O          6.28106        12.32319        -1.86784
H          6.52484        13.26199        -2.02207
O          9.64205        14.74022        -0.98967
H         10.49473        14.61143        -1.46068
O         11.28803        14.21978         2.27498
H         10.46030        14.34953         2.79745
O          4.79955         0.18325         0.90116
H          4.69364         0.60470         1.77844
O         16.65613         2.39407        -1.05101
H         16.47959         2.84262        -1.90676
H          0.19868         1.53253         0.57332
H          0.17605         3.98771         0.21496
H          2.36663         0.27987         0.48174
H          0.13291         5.86620        -0.55055
H          0.18409         8.27679        -0.79151
H          0.19769        10.24135        -0.74949
H          0.19925        12.65552        -0.60770
H          0.20305        14.59773        -0.28237
H          0.20017        17.02334        -0.07033
H          1.50749        19.22591         0.26874
H          4.77640         0.68280        -1.08929
H          3.65855        20.33837         0.70186
H          7.12311         0.37902         0.84453
H          6.10522        20.33046         0.71098
H          9.64651         0.58536         1.52041
H          8.61515        20.30477         0.63791
H         12.15533         0.67549         1.86772
H         11.01522        20.27269         0.48510
H         14.59600         0.95532         2.29009
H         13.45532        20.31661         0.19178
H         16.92682         1.14864         2.69480
H         15.91306        20.38814        -0.11140
H         19.48959         0.87189         2.48503
H         18.42951        20.45062        -0.16574
H         21.63968         1.64951         1.56000
H         22.94244         3.15273         0.18955
H         23.08996         5.15260        -1.32366
H         23.09862         8.32675        -1.87127
H         23.19589        10.65575        -1.00447
H         23.22133        12.35634         0.06873
H         23.15982        14.78783         0.24914
H         23.17111        16.73044         0.16916
H         20.97117        20.43175         0.10482
H         23.08503        19.17583         0.25516
