         300
 CSIRO Nanostructure Databank - Neutral Graphene Oxide Data Set
C         30.77560        31.45875         1.94925
C         30.87054        32.71140         1.68492
C         30.59862        36.00184         1.11949
C         30.53057        37.23243         1.07044
C         30.22620        40.33121        -0.09936
C         30.24749        41.57302        -0.19002
C         32.80917        28.89903         0.17951
C         31.92533        29.36301         0.92282
C         32.65811        31.77623        -0.15645
C         31.18245        30.56630         0.94795
C         32.71150        33.10029         0.32620
C         31.71959        33.67932         1.16486
C         32.98762        35.93529         1.10296
C         31.73339        35.11276         1.61022
C         32.92004        37.49959         0.85629
C         31.57744        38.23239         0.85064
C         32.62977        40.25941        -0.50206
C         31.46157        39.58594         0.23441
C         32.58263        41.75892        -0.73641
C         31.28353        42.53058        -0.38144
C         32.60712        44.37816        -0.25235
C         31.38999        43.88863        -0.26708
C         35.35181        27.28546        -0.51426
C         35.19045        28.72980        -0.93979
C         33.87588        29.44724        -0.63674
C         35.18228        31.73604        -0.79663
C         33.81974        31.01841        -0.67829
C         35.15908        33.05233         0.04036
C         33.87774        33.91331        -0.21765
C         35.43115        35.97938         0.36499
C         34.07468        35.28130         0.40841
C         35.37863        37.48719         0.07176
C         34.09965        38.23640         0.26558
C         35.19148        40.30607        -0.51673
C         33.94554        39.46776        -0.64637
C         35.09123        41.76808        -0.14606
C         33.93595        42.51406        -0.89846
C         35.11297        44.74128         0.04518
C         33.88574        44.01451        -0.33336
C         35.36818        46.18023        -0.15046
C         37.80134        27.18561        -0.33786
C         36.41530        26.67884        -0.36940
C         37.72907        28.70077        -0.22643
C         36.38727        29.41396        -0.24086
C         37.68528        31.61204        -0.14553
C         36.38808        30.92100        -0.24380
C         37.74769        33.07343        -0.24097
C         36.46738        33.83502        -0.17443
C         37.71347        35.94050        -0.83512
C         36.35435        35.27691        -0.65991
C         37.71533        37.43113        -0.78762
C         36.53727        38.11623        -0.62909
C         37.76769        40.35774        -0.79245
C         36.45488        39.59551        -0.79385
C         37.72248        41.83801        -0.45641
C         36.40806        42.55509        -0.30849
C         37.74161        44.79225        -0.10510
C         36.42320        44.00437         0.14626
C         37.75419        46.28120         0.49903
C         36.44327        46.78137        -0.07801
C         40.10535        24.39224         0.80060
C         39.06794        25.01898         0.52410
C         40.15584        27.17342         0.72461
C         39.08866        26.39777        -0.09349
C         40.15042        28.69716         0.69557
C         38.88345        29.43865         0.39622
C         40.20653        31.72960         0.54295
C         38.89801        30.94891         0.33883
C         40.20212        33.25860         0.28918
C         39.07536        33.65026        -0.73661
C         40.24857        35.91710        -0.60683
C         39.00203        35.16599        -0.89987
C         40.23492        37.27742        -0.51368
C         39.04529        38.09544        -0.89251
C         40.21577        40.19660         0.04019
C         39.07599        39.59659        -0.72957
C         40.19660        41.69030         0.31348
C         38.92025        42.47077         0.20378
C         40.27230        44.60896         0.00753
C         38.94264        43.99830         0.48879
C         40.35347        46.09360         0.43184
C         39.07221        46.95086         0.15343
C         40.30911        49.21045         0.50447
C         39.44221        48.23627         0.22274
C         42.71498        24.36162         0.98214
C         41.37857        24.64642         1.48701
C         42.65930        27.15457         0.54865
C         41.41425        26.47929         1.09543
C         42.66629        28.63944         0.23511
C         41.47672        29.44454         0.70699
C         42.80542        31.60224         0.12048
C         41.52720        30.95062         0.58011
C         42.80169        33.08214         0.01327
C         41.52663        33.83913        -0.16805
C         42.67626        35.92705        -1.08307
C         41.51408        35.17672        -0.45077
C         42.78152        37.44528        -0.59355
C         41.47658        37.86206         0.13710
C         42.72663        40.09923         0.82367
C         41.42000        39.37931         0.39679
C         42.76172        41.60309         0.50457
C         41.51584        42.41015         0.34252
C         42.71975        44.58348         0.63578
C         41.53288        43.89360         0.51730
C         42.81921        45.99824         0.23698
C         41.65378        46.62439        -0.13700
C         42.91310        48.99540         0.45164
C         41.55708        48.92944        -0.02467
C         43.77873        24.98731         0.90097
C         45.22639        27.20496         0.63895
C         43.98391        26.39835         0.53071
C         45.19535        28.77608         0.66318
C         43.99817        29.36564        -0.14857
C         45.25505        31.56028        -0.40742
C         43.98221        30.89901        -0.04729
C         45.30891        32.92262        -0.64864
C         44.08322        33.75177        -0.41400
C         45.28594        35.84564        -0.65518
C         44.03652        35.10052        -1.14849
C         45.31447        37.24325        -0.13158
C         43.98852        37.91025         0.29125
C         45.27824        40.19269         0.29094
C         43.98605        39.44214         0.23641
C         45.30815        41.66582         0.61237
C         43.98832        42.35541         1.03191
C         45.21601        44.54745         1.26322
C         44.04419        43.83275         0.55791
C         45.08074        46.11834         1.34547
C         44.19244        46.72458         0.24833
C         43.81599        48.15857         0.54308
C         47.48967        27.53383         1.35725
C         46.52606        26.76762         1.19394
C         47.77589        28.85025         0.86384
C         46.52953        29.26233         0.02158
C         47.85861        31.49094        -0.44142
C         46.53604        30.75211        -0.41626
C         47.96213        32.95142        -0.94413
C         46.57863        33.65493        -1.01262
C         47.84852        35.90217        -0.66824
C         46.57714        35.17484        -1.04784
C         47.85622        37.37882        -0.39950
C         46.53289        38.12956        -0.48615
C         47.87758        40.15556         0.44406
C         46.54771        39.34845         0.47974
C         47.90088        41.59634         0.88771
C         46.59947        42.37014         0.90795
C         47.90460        44.51317         1.72570
C         46.52686        43.80032         1.44117
C         47.60073        45.95364         1.41997
C         46.52358        46.52901         1.31672
C         50.22430        29.16909         1.39687
C         48.94383        29.53478         0.85694
C         50.37232        31.57018         0.03750
C         48.99020        31.02166         0.49239
C         50.42408        33.00877        -0.36921
C         49.09985        33.78239        -0.26121
C         50.38593        35.96920        -1.06070
C         49.13330        35.16865        -0.92567
C         50.28311        37.50183        -1.14761
C         49.06779        38.17380        -0.68433
C         50.19501        40.52658        -0.74402
C         49.00284        39.63632        -0.44585
C         50.33480        41.88758        -0.05413
C         49.14797        42.43886         0.71035
C         50.29061        44.46765         0.68381
C         49.05574        43.90418         0.98061
C         51.31319        29.75629         1.50174
C         52.63760        31.95655         0.98899
C         51.89711        30.73853         0.56887
C         52.70269        33.08886         0.49457
C         51.72496        33.82565        -0.32202
C         52.70642        36.34188        -0.47053
C         51.72848        35.26838        -0.71871
C         52.67243        37.53391        -0.78477
C         51.56007        38.36550        -1.27152
C         52.60128        40.66422        -0.60195
C         51.54274        39.89037        -1.31881
C         52.68506        41.88235        -0.41884
C         51.51702        42.82603        -0.55044
C         51.43426        44.08551         0.30108
O         50.47997        31.91161        -1.34290
O         48.19100        40.52584         1.82906
O         52.13846        34.25265        -1.64264
O         45.61934        44.00724         2.55869
O         42.33867        41.95645        -0.83312
O         44.53099        40.02355        -0.96699
O         42.30715        27.67196        -0.78331
O         45.46165        36.09995         0.77549
O         44.81224        26.65099        -0.62577
O         41.72612        30.26232         1.86834
O         40.53161        26.90800         2.14116
O         35.15790        38.33520         1.26806
O         50.31470        41.80789         1.37905
O         49.75032        35.33094        -2.21153
O         43.68996        33.76821         0.98639
O         37.31192        33.75967         1.01330
O         46.57377        34.43660        -2.26309
O         41.61916        47.76086        -0.92678
O         38.31702        35.52689        -2.14206
O         37.10530        42.51992        -1.59007
O         50.92282        37.87703        -2.45628
O         36.06116        30.11178         0.96861
O         31.66302        39.42913         1.66282
O         37.09879        40.07641        -2.04197
O         49.12000        40.46800        -1.69435
O         47.41903        30.74283        -1.60039
O         32.29730        40.81854        -1.81419
O         39.37430        38.99137        -2.01466
O         39.35289        31.46982         1.67006
O         42.15620        36.00485        -2.39317
O         33.31536        36.93926         2.12991
O         35.68361        44.31927         1.35369
O         39.29213        41.82342         1.46227
O         33.44298        30.16822        -1.81698
O         47.91150        36.41686         0.71491
O         31.37702        31.19393        -0.35218
O         40.35082        39.56804         1.37072
O         46.05852        42.33256        -0.45008
O         39.20400        29.04382         1.75559
O         38.00469        28.05507        -1.49806
O         37.61492        46.30147         1.89652
H         36.82921        45.75384         2.13733
O         48.91572        33.99661         1.13903
H         48.20897        34.65729         1.31214
O         40.54222        46.14173         1.85319
H         39.68771        45.89224         2.28256
O         45.06069        29.23294         2.00429
H         45.80299        28.87907         2.54009
O         46.65182        28.45975        -1.15599
H         47.25049        28.92450        -1.78505
O         33.55317        34.02687        -1.61470
H         34.27262        34.51356        -2.08775
O         41.30560        24.54752         2.84946
H         40.49869        25.00854         3.16575
O         31.74129        35.12214         3.01284
H         31.92893        36.03617         3.32222
O         46.44253        38.51684        -1.85477
H         45.61912        39.04990        -1.99048
O         33.92493        38.87078        -1.96838
H         33.67706        39.57872        -2.60713
O         39.40054        33.05438        -1.99784
H         39.27812        33.72662        -2.70426
O         35.06459        32.66397         1.41185
H         35.92912        32.86390         1.84827
O         44.47879        46.42397         2.58004
H         44.89021        45.86869         3.27709
O         52.45567        30.13425        -0.52574
H         52.63933        30.80363        -1.21776
O         40.31506        44.45010        -1.41766
H         41.14480        44.84885        -1.75571
O         39.71671        26.25308        -1.36644
H         39.04617        26.01408        -2.03915
O         39.89411        33.92044         1.52132
H         39.40429        33.28565         2.09661
O         48.66087        31.63674         1.76116
H         49.36524        31.41716         2.40753
O         35.44279        32.04391        -2.16723
H         34.93488        31.40792        -2.72087
O         46.42210        38.76864         1.78957
H         47.00507        39.26312         2.41230
O         51.33623        43.15415        -1.88693
H         52.17355        43.46841        -2.28440
O         35.44709        28.80654        -2.32861
H         34.66176        28.48684        -2.82026
O         44.87052        46.65048        -0.98885
H         44.32511        47.07647        -1.68103
O         44.20594        29.14732        -1.54167
H         44.30637        28.17471        -1.68935
O         51.63469        40.28550        -2.67512
H         51.25659        39.56891        -3.23524
O         43.86611        42.36060         2.45797
H         43.52477        41.47889         2.75424
O         48.18396        44.33345         3.10435
H         47.34683        44.47966         3.59985
O         41.47547        37.24538         1.44369
H         40.76275        37.67223         1.96918
O         44.23531        34.77822        -2.52140
H         43.45920        35.16854        -3.01580
O         44.30234        43.90041        -0.85807
H         43.73296        43.22617        -1.30107
O         34.28022        42.57345        -2.26479
H         33.47700        42.71107        -2.80782
O         42.81555        39.96646         2.25689
H         43.01095        39.00861         2.44457
O         34.69149        41.81681         1.24438
H         35.29719        41.27058         1.78826
O         35.73611        35.38474        -1.95381
H         36.45027        35.32552        -2.63175
O         43.81019        37.62182         1.68248
H         44.19932        36.72984         1.86053
O         36.02127        35.84277         1.67092
H         35.53121        36.44882         2.27407
O         42.88019        38.23760        -1.77729
H         42.48962        37.66966        -2.50275
O         37.87303        45.01631        -1.50176
H         37.79482        44.15955        -1.98486
O         48.42839        32.89328        -2.29605
H         47.85170        32.27884        -2.79914
O         38.82523        44.15622         1.90659
H         39.24588        43.37203         2.33663
