         264
 CSIRO Nanostructure Databank - Neutral Graphene Oxide Data Set
C        -11.23453         0.64073        -0.25220
C        -10.41959         1.71034         0.34949
C         -8.54923         0.73928         0.95377
C         -7.59622         1.47959         0.10493
C         -6.32547         0.70169        -0.19154
C         -5.05589         1.46238        -0.44494
C         -3.75325         0.71208        -0.32373
C         -2.50728         1.53435        -0.29652
C         -1.19811         0.81927        -0.24336
C         -0.07714         1.42338        -1.09952
C          1.23325         0.71987        -0.79599
C          2.53818         1.41703        -0.70288
C          3.80976         0.67994        -0.93762
C          5.05332         1.46309        -0.87263
C          6.34711         0.71292        -0.94159
C          7.66702         1.39342        -0.72824
C          8.67590         0.66578         0.10836
C          9.91556         1.34596         0.50750
C         11.14405         0.59246         0.75738
C        -10.12524         2.95660        -0.12899
C         -8.92324         3.72368         0.48279
C         -7.64952         2.98250         0.01639
C         -6.35544         3.72779        -0.11722
C         -5.06038         2.96728        -0.35676
C         -3.74946         3.66909        -0.27572
C         -2.59197         3.00517        -0.57534
C         -1.31974         3.72845        -0.85834
C         -0.03507         2.96664        -1.04938
C          1.28516         3.67313        -0.77964
C          2.57221         2.90992        -0.71158
C          3.80245         3.46581         0.00521
C          5.06417         2.78708        -0.51669
C          6.34480         3.50121        -0.25763
C          7.69900         2.93543        -0.73330
C          8.82615         3.54861         0.09812
C          9.94845         2.72645         0.49878
C         -8.79232         5.18857         0.06341
C         -7.62187         5.86641         0.11845
C         -6.36505         5.11264         0.55385
C         -5.03496         5.85288         0.35548
C         -3.76589         5.12683        -0.00135
C         -2.60340         5.96728        -0.50815
C         -1.27359         5.22179        -0.60039
C          0.02016         5.85976        -0.19270
C          1.24258         4.99810        -0.04290
C          2.53932         5.66647         0.30941
C          3.79819         4.98628        -0.15706
C          5.08338         5.75129        -0.23262
C          6.34943         4.98004        -0.06941
C          7.66592         5.73121        -0.27386
C          8.80100         4.90128         0.29901
C         -7.59371         7.38973        -0.04920
C         -6.26125         7.93640        -0.62271
C         -5.08282         7.34728         0.13296
C         -3.79386         8.09027         0.12818
C         -2.53742         7.28332         0.26705
C         -1.25351         7.99425         0.46747
C          0.03095         7.21022         0.46373
C          1.32269         7.91562         0.71064
C          2.60797         7.15071         0.56279
C          3.86628         7.90831         0.33789
C          5.12200         7.18900         0.03727
C          6.34649         7.86329         0.22163
C          7.56568         7.17291         0.16425
C         -6.14856         9.45415        -0.59951
C         -4.98632        10.13149        -0.56091
C         -3.62553         9.45304        -0.54613
C         -2.50604        10.13260         0.22617
C         -1.13387         9.50871         0.13644
C          0.01720        10.10372         1.02297
C          1.35349         9.40535         0.71484
C          2.52043        10.05883         0.50431
C          3.80981         9.39053         0.03219
C          5.11401        10.00849         0.50815
C          6.26517         9.30140         0.53895
C        -11.18815        -0.73486        -0.17208
C        -10.30278        -1.68272         0.52601
C         -8.52565        -0.60311         1.04626
C         -7.45852        -1.47392         0.57594
C         -6.20581        -0.77246         0.15900
C         -4.92820        -1.26341         0.80904
C         -3.69048        -0.71805         0.10606
C         -2.39269        -1.37261         0.54983
C         -1.13601        -0.68402        -0.00127
C          0.04078        -1.46931        -0.49470
C          1.19978        -0.74530        -1.12874
C          2.50380        -1.45801        -1.25249
C          3.77096        -0.68233        -1.10688
C          5.03382        -1.45628        -1.19448
C          6.17393        -0.72795        -0.55444
C          7.25644        -1.44229         0.19151
C          8.37008        -0.56209         0.61143
C         10.21025        -1.68565         0.96507
C         11.32606        -0.76264         0.83551
C         -9.90291        -2.92339         0.09047
C         -8.67849        -3.62615         0.56165
C         -7.49985        -2.91352         0.90988
C         -6.19717        -3.58241         1.07863
C         -4.89906        -2.78320         1.00388
C         -3.64994        -3.51776         0.62613
C         -2.48189        -2.88368         0.30922
C         -1.31375        -3.65557        -0.23996
C         -0.08000        -2.94925        -0.72580
C          1.22159        -3.72482        -1.07444
C          2.50876        -2.90213        -0.81705
C          3.81394        -3.62351        -0.64595
C          5.08660        -2.94523        -1.07806
C          6.49333        -3.58979        -0.90106
C          7.45120        -2.90915         0.05160
C          8.68462        -3.59001         0.30615
C         10.00001        -2.93588         0.45672
C         -8.59912        -5.03499         0.44708
C         -7.38162        -5.77364         0.58002
C         -6.06102        -5.00624         0.51417
C         -4.89545        -5.76008         1.21416
C         -3.61029        -4.96033         1.01775
C         -2.32740        -5.69787         0.89587
C         -1.24159        -5.18474        -0.04042
C          0.16221        -5.68729         0.35349
C          1.33570        -5.02801        -0.27832
C          2.54016        -5.87066        -0.70325
C          3.83688        -5.10933        -0.43980
C          5.12283        -5.83264        -0.51483
C          6.44863        -5.18645        -0.94473
C          7.56781        -5.80776        -0.10162
C          8.68587        -5.00059         0.26077
C         -7.35884        -7.14881         0.61014
C         -6.11241        -7.97039         0.85696
C         -4.80119        -7.18145         0.55769
C         -3.60109        -8.00460         1.04664
C         -2.30130        -7.18890         1.11560
C         -0.98767        -7.81260         1.15667
C          0.33315        -7.13722         0.88348
C          1.39638        -7.98169         0.13319
C          2.54755        -7.32621        -0.25150
C          3.78837        -8.06153        -0.62785
C          5.10377        -7.32063        -0.70784
C          6.39465        -8.01773        -0.27101
C          7.51143        -7.15943         0.17502
C         -6.02606        -9.26771         0.08604
C         -4.87974        -9.95753         0.05455
C         -3.61155        -9.54120         0.77874
C         -2.38947       -10.01037        -0.01290
C         -1.11596        -9.86051         0.44274
C          0.17704       -10.25429         0.01609
C          1.36681        -9.46418         0.13475
C          2.57556       -10.16316         0.11051
C          3.84276        -9.53510        -0.26237
C          5.13094       -10.11063         0.17884
C          6.28350        -9.40962         0.21615
O         -9.62487        -1.22006         1.67933
O          7.87931         5.89044        -1.69124
H          7.94823         4.93926        -2.08051
O         -0.95304        -9.03080         1.69595
O         -7.35637         0.87192        -1.19991
O         -5.09491         2.25698        -1.65193
O          4.27788         5.42912        -1.44542
O         -3.22875         9.19505        -1.92591
H         -3.20496         8.21509        -2.07758
O         -0.42162         5.91394        -1.58039
O          3.12248        -2.99307         0.49503
O          2.19917         3.60593        -1.92287
O          1.81003         0.96225         0.50791
O          6.02029        -0.97451         0.88543
O         -2.00680         7.46122         1.60598
O          7.30068         0.85224        -2.03384
O          7.88139         3.36458        -2.07167
O          3.47130         7.51202         1.70131
O          5.06987        -2.28625        -2.38626
O         -4.08030         5.45615         1.39065
O         -3.73710        -0.40755        -1.29653
O         -0.76999         3.47782        -2.20379
O          6.34299         4.09596         1.10197
O         -4.64824         8.10652         1.30069
O          9.13149        -1.09522         1.65607
O         -5.43758        -3.26416         2.27336
O         -6.93141        -1.51773        -0.84367
O         -0.03129        -1.04813         0.90207
O         -4.96764        -0.61739         2.10299
H         -4.14781        -0.87689         2.58979
O          6.01819        -7.82417        -1.67964
O          1.01617        -4.78501         1.12499
O         -3.09378        -7.61245         2.31600
O          0.57464         7.28626         1.81452
O          1.66565        -1.17439        -2.43162
O         -8.66098         7.82096        -0.88463
H         -8.40449         7.60106        -1.80657
O          6.63701        -5.52807        -2.28184
O         -7.23607         3.54673        -1.25780
O         -1.14467        -3.29136        -1.65964
O          2.41343        -6.09637        -2.08324
O         -0.40578         1.00922        -2.43852
H         -0.76101         1.79134        -2.92614
O         -8.97339         3.69471         1.91348
H         -9.71070         4.26275         2.21424
O          7.27039        -3.24380        -2.06199
H          7.23651        -4.08850        -2.63943
O          4.56995        -5.46964         0.78945
O          0.86130        -7.04155         2.23909
H          1.29047        -6.15123         2.31274
O         -2.63295        -5.02771         2.14512
O          3.71390        -9.06549        -1.66735
O          3.70645         3.12640         1.39344
H          4.55854         3.37367         1.82172
O         -5.71927        -4.79920        -0.82251
O         -6.50416         4.88346         1.97356
H         -5.61746         4.97576         2.39142
O         -0.64587         9.54172        -1.22005
H         -1.43317         9.59041        -1.81890
O          3.79327         9.48129        -1.42028
H          3.85248        10.42558        -1.67440
O         -3.60396       -10.19541         2.05781
H         -3.03004        -9.67104         2.65977
O          1.77526         4.92582         1.30401
O         -1.68194         1.47922         0.95251
O         -2.34739        -1.21208         1.98967
H         -1.40190        -1.27529         2.26398
O         -1.53053        -5.83196        -1.29292
H         -1.26789        -5.21470        -2.01913
O         -9.68637         1.34794         1.50520
O          1.17064        -4.02663        -2.46295
H          1.28245        -3.19485        -2.97560
O         -5.16626        -5.88221         2.61616
H         -4.30576        -5.79649         3.09040
O         -6.19620         7.48731        -1.99878
H         -5.55009         8.04461        -2.48225
O         -0.30279         9.93820         2.39703
H         -0.23037         8.98014         2.61934
O         -2.95012         6.37779        -1.86645
H         -2.16272         6.21949        -2.43927
O         -4.60950        -7.08296        -0.85173
H         -5.07224        -6.24989        -1.18332
O         -6.17390        -8.31390         2.25866
H         -5.97314        -7.49064         2.77172
H         12.35239        -1.16079         0.81598
H         12.05745         1.21064         0.75102
H         10.87105         3.24056         0.81365
H          9.63157         5.40435         0.81951
H          8.50192         7.74420         0.26596
H          7.20264         9.80475         0.82102
H          5.12884        11.08302         0.74868
H          2.51988        11.16203         0.50816
H          0.11583        11.19832         0.81769
H         -2.79051        10.53412         1.21393
H         -5.00818        11.23217        -0.57808
H         -7.09505        10.01557        -0.65028
H         -7.74909         7.84446         0.96506
H         -9.70788         5.74478        -0.19811
H        -10.59216         3.33589        -1.05009
H        -11.95740         1.01960        -0.99570
H        -11.87615        -1.24282        -0.87097
H        -10.43506        -3.39986        -0.74770
H         -9.50933        -5.58728         0.16202
H         -8.31674        -7.69192         0.68958
H         -6.91802        -9.64435        -0.43714
H         -4.83516       -10.91518        -0.48685
H         -2.54708       -10.54137        -0.96214
H          0.30522       -11.29233        -0.33016
H          2.55899       -11.25463         0.25443
H          5.10787       -11.13500         0.58094
H          7.18859        -9.87428         0.63654
H          8.30558        -7.62505         0.78215
H          9.62232        -5.51639         0.53093
H         10.84550        -3.47845         0.00753
