         490
 CSIRO Nanostructure Databank - Neutral Graphene Oxide Data Set
C         38.80451        50.87217         4.29286
C         37.60061        51.55049         4.48223
C         38.43007        53.36922         3.12733
C         37.41041        52.79817         3.88286
C         40.92588        49.17820         3.13285
C         41.12585        50.65852         3.35718
C         39.82732        51.41987         3.50616
C         40.74752        53.31915         2.16888
C         39.66075        52.70380         2.93832
C         40.64728        54.63310         1.68456
C         43.15432        49.01281         2.13787
C         41.92122        48.42061         2.62444
C         43.15553        50.44410         1.89997
C         42.07329        51.22747         2.32418
C         42.94705        53.15263         1.04861
C         41.92869        52.57388         1.87039
C         42.78955        54.46765         0.53051
C         41.63935        55.19565         0.88514
C         45.41412        46.05092         1.62090
C         44.33664        46.82712         2.01468
C         45.48162        48.90425         1.28021
C         44.27014        48.23335         1.80429
C         45.37620        50.29626         0.77933
C         44.22782        51.04867         1.14612
C         45.19654        52.99894         0.00218
C         44.12714        52.40153         0.73770
C         45.03413        54.31106        -0.54395
C         43.80384        55.01365        -0.35981
C         44.50503        56.63477        -2.02335
C         43.56997        56.19050        -1.09041
C         47.68018        44.40704         0.65927
C         47.61417        45.80006         0.46664
C         46.54652        46.58371         0.95115
C         47.66889        48.65005        -0.03843
C         46.62997        48.05240         0.82616
C         47.48966        50.03418        -0.59634
C         46.41751        50.87778         0.04852
C         47.50757        52.91052        -0.91296
C         46.36189        52.25052        -0.31755
C         47.38901        54.23643        -1.35639
C         46.07701        54.86021        -1.35228
C         47.70536        57.06563        -2.83281
C         45.73467        55.98395        -2.14118
C         47.80289        58.39231        -3.26858
C         49.94341        44.28291        -0.27532
C         48.78296        43.66748         0.23058
C         49.98414        45.68630        -0.44072
C         48.66246        46.41125        -0.44534
C         49.97894        48.56712        -0.83802
C         48.76785        47.91366        -0.38804
C         49.99204        49.99942        -0.96412
C         48.79244        50.75830        -0.80724
C         49.97751        52.82376        -1.31709
C         48.77018        52.15947        -1.00215
C         49.95821        54.28793        -1.42363
C         48.62929        55.05452        -1.53479
C         49.97278        57.14622        -2.00424
C         48.73770        56.41803        -2.13102
C         50.04535        58.52025        -2.37227
C         48.95833        59.12910        -2.99779
C         52.34859        41.40272        -0.06200
C         51.18060        42.05795        -0.22979
C         52.43129        44.20583        -0.59426
C         51.12145        43.46618        -0.75473
C         52.42707        45.64527        -0.76550
C         51.18192        46.37432        -0.75089
C         52.41566        48.51715        -1.11853
C         51.18149        47.81815        -0.92805
C         52.42161        49.91488        -1.36035
C         51.22043        50.66401        -1.26697
C         52.43527        52.78941        -1.57884
C         51.22164        52.10759        -1.43384
C         52.48273        54.22789        -1.85793
C         51.17787        54.99502        -1.89332
C         52.44861        57.12133        -1.64646
C         51.20356        56.45187        -1.76817
C         52.48429        58.53001        -1.65559
C         51.34750        59.28686        -2.29280
C         52.28552        61.30817        -1.19579
C         51.20061        60.66820        -1.71533
C         54.87911        39.90762        -0.10913
C         54.84686        41.35529        -0.16565
C         53.62866        42.06242        -0.23923
C         54.91788        44.15826        -0.74981
C         53.61024        43.48554        -0.44373
C         54.88863        45.65377        -0.58707
C         53.64875        46.35614        -0.81421
C         54.87996        48.47266        -0.92694
C         53.66419        47.79340        -0.96081
C         54.98829        49.88625        -1.32317
C         53.70440        50.59428        -1.68298
C         54.92888        52.80743        -1.21996
C         53.74539        52.10675        -1.88003
C         54.88128        54.22371        -1.14929
C         53.70352        54.97333        -1.49455
C         54.83206        57.09730        -0.93807
C         53.66818        56.37063        -1.38528
C         54.80159        58.51507        -0.77802
C         53.62780        59.24714        -1.18448
C         54.66289        61.46285        -0.42275
C         53.54250        60.64812        -1.01748
C         54.97516        62.71379        -1.23541
C         57.35608        39.84928         0.32235
C         56.02209        39.20782         0.06034
C         57.32797        41.35138         0.13439
C         56.11061        42.05031        -0.10539
C         57.32111        44.17485         0.02614
C         56.14003        43.46739        -0.19950
C         57.20038        45.65554         0.32489
C         56.07433        46.32368        -0.42265
C         57.42994        48.51083        -0.65845
C         56.13434        47.74179        -0.77637
C         57.38278        49.99173        -0.58144
C         56.19145        50.66914        -0.93121
C         57.30180        52.85052        -0.53368
C         56.11593        52.10464        -0.87579
C         57.27465        54.23403        -0.55358
C         56.05039        54.95266        -0.76534
C         57.12399        57.06540         0.01984
C         56.00001        56.35894        -0.61676
C         57.10282        58.52866         0.08884
C         55.95733        59.22885        -0.27756
C         57.09344        61.40283         0.04075
C         55.95334        60.68779        -0.21432
C         57.05255        62.91789         0.07580
C         56.09347        63.40700        -0.99005
C         59.73213        37.10165        -0.52260
C         58.56163        37.78087        -0.59274
C         59.81287        39.90421        -0.18555
C         58.49874        39.27867        -0.57086
C         59.82814        41.29470         0.39126
C         58.53817        42.04833         0.16650
C         59.81127        44.17033         0.21515
C         58.55937        43.47521         0.16806
C         59.83865        45.62886         0.36155
C         58.52234        46.41650         0.32815
C         59.80361        48.51176         0.01642
C         58.59795        47.81962        -0.07955
C         59.80819        49.95846        -0.09628
C         58.58395        50.66425        -0.25227
C         59.84600        52.78395        -0.63858
C         58.56910        52.16338        -0.05022
C         59.84432        54.31005        -0.49691
C         58.52823        55.06786        -0.66912
C         59.67357        57.15188         0.30060
C         58.44359        56.34613         0.16560
C         59.64261        58.52534         0.37098
C         58.34049        59.22878         0.47962
C         59.64034        61.44121         0.21826
C         58.35379        60.73739         0.40861
C         59.62977        62.87435         0.14398
C         58.41699        63.58521         0.04064
C         59.63050        65.70337         0.14185
C         58.44563        64.99833         0.04045
C         62.27177        35.64074        -0.21952
C         62.23606        37.05514        -0.41171
C         61.00489        37.77207        -0.43703
C         62.28530        39.90444        -0.28598
C         61.02041        39.20293        -0.30159
C         62.27617        41.35676        -0.16964
C         61.06719        42.05896        -0.00744
C         62.28732        44.20880        -0.07093
C         61.05137        43.48140         0.04560
C         62.29539        45.65422        -0.04903
C         61.07954        46.36707         0.09416
C         62.28047        48.49834         0.15179
C         61.04988        47.78229         0.12548
C         62.26599        49.93880         0.21165
C         61.05602        50.65126         0.03480
C         62.20842        52.79060         0.31094
C         61.08086        52.10769        -0.04328
C         62.21402        54.25260         0.50099
C         61.01014        55.02513         0.09033
C         62.19159        57.20689         0.33022
C         60.93801        56.42517         0.66865
C         62.10458        58.58613         0.14377
C         60.86822        59.28546         0.27649
C         62.10618        61.44671         0.22585
C         60.84209        60.72074         0.18770
C         62.09193        62.88563         0.36277
C         60.88493        63.59227         0.24625
C         62.10717        65.74823         0.38226
C         60.88252        65.03752         0.26414
C         62.13941        67.19584         0.45147
C         64.70898        35.56974        -0.19252
C         63.46106        34.94159        -0.05392
C         64.71451        36.98351        -0.60867
C         63.46523        37.77525        -0.55956
C         64.73356        39.99216        -0.86528
C         63.48054        39.18820        -0.52984
C         64.76669        41.27919        -0.01600
C         63.50131        42.08792        -0.19259
C         64.81930        44.20387        -0.38536
C         63.50726        43.48549        -0.14776
C         64.79850        45.69405        -0.14524
C         63.52455        46.38866        -0.06608
C         64.80910        48.50422         0.33250
C         63.49998        47.78559         0.10387
C         64.73178        49.99593         0.13860
C         63.51705        50.64183         0.28561
C         64.63605        52.83741        -0.14719
C         63.52160        52.10951         0.62863
C         64.74116        54.31082         0.16349
C         63.49505        55.04223         0.45697
C         64.61345        57.17596        -0.10087
C         63.44186        56.50875         0.21386
C         64.61360        58.62037        -0.31785
C         63.28599        59.36333        -0.40317
C         64.52745        61.38648         0.76996
C         63.30917        60.76276         0.16438
C         64.53623        62.88237         0.66347
C         63.35612        63.58665         0.51855
C         64.56993        65.75230         0.52158
C         63.35457        65.04876         0.49129
C         64.60609        67.21301         0.10744
C         63.29406        67.89485         0.38128
C         67.16539        32.79616         0.41635
C         66.00357        33.45366         0.07130
C         67.17813        35.57899         0.20907
C         65.96213        34.87155        -0.00883
C         67.13226        37.05096         0.20595
C         66.03322        37.72439        -0.54606
C         67.30885        39.96059        -0.30401
C         66.06229        39.22178        -0.69653
C         67.24445        41.42690        -0.10938
C         66.05472        42.06650        -0.14208
C         67.30039        44.27185        -0.02881
C         66.01593        43.51913         0.27736
C         67.27264        45.69283        -0.17556
C         65.99152        46.38126        -0.20707
C         67.22891        48.61258        -0.24320
C         65.94044        47.87158        -0.46586
C         67.21443        50.01426        -0.22404
C         65.96294        50.72637        -0.04738
C         67.17368        52.85355        -0.23809
C         65.96480        52.12430        -0.09650
C         67.16141        54.28214        -0.24460
C         65.89704        54.98008        -0.09693
C         67.14353        57.13617         0.05834
C         65.89455        56.44868        -0.42448
C         67.07180        58.53609         0.60730
C         65.90844        59.36060         0.04228
C         67.06118        61.35691         1.10597
C         65.84808        60.75326         0.43764
C         67.08797        62.85447         0.82469
C         65.79634        63.59709         1.08381
C         67.01603        65.70950         0.59464
C         65.81085        65.04375         0.64132
C         67.01298        67.15278         0.91720
C         65.81349        67.95324         0.65445
C         67.12655        69.99903         1.04414
C         65.89765        69.31510         0.75465
C         69.53294        31.38793         1.39335
C         69.55269        32.78254         1.15189
C         68.35974        33.49621         0.72515
C         69.61105        35.64880         0.82838
C         68.36912        34.91506         0.61106
C         69.67750        37.06230         0.67125
C         68.42213        37.82833         0.50166
C         69.73527        39.95798         0.58255
C         68.48506        39.23234         0.17004
C         69.73435        41.40170         0.12167
C         68.45618        42.14874         0.45857
C         69.75710        44.30057         0.00214
C         68.51079        43.60144         0.05911
C         69.73248        45.72812        -0.07321
C         68.48297        46.40685        -0.14918
C         69.73664        48.58081        -0.36726
C         68.48913        47.89220         0.11881
C         69.59328        49.95146        -0.99560
C         68.42734        50.74393        -0.43401
C         69.62473        52.92543        -0.54152
C         68.42145        52.15658        -0.41348
C         69.61306        54.32326        -0.36236
C         68.36335        55.01759        -0.25485
C         69.60137        57.19102         0.05427
C         68.34116        56.46074        -0.03104
C         69.58924        58.58315         0.19163
C         68.37345        59.29263         0.47816
C         69.56897        61.42557         0.69162
C         68.34925        60.65944         0.72718
C         69.53304        62.79244         0.52646
C         68.25932        63.50208         0.54226
C         69.56810        65.66639         0.71460
C         68.29487        64.98816         0.23862
C         69.57533        67.14398         0.81085
C         68.31951        67.87004         1.15349
C         69.60419        70.02134         1.45674
C         68.33276        69.34873         1.16477
C         69.62172        71.39185         1.79195
C         71.87397        31.41467         1.98494
C         70.67351        30.71273         1.80191
C         71.91779        32.78275         1.75618
C         70.76965        33.49313         1.33768
C         72.03088        35.63593         1.12549
C         70.80980        34.93138         1.10289
C         72.08955        36.99323         0.83678
C         70.91874        37.73351         0.61493
C         72.21428        39.98258         0.48922
C         70.98453        39.17650         0.11606
C         72.23641        41.32617         0.40579
C         71.03540        42.12718         0.05330
C         72.18092        44.36640         0.19390
C         71.01225        43.61713         0.10944
C         72.15751        45.77181         0.11513
C         70.96325        46.47058        -0.05099
C         72.15665        48.63897        -0.66087
C         70.92964        47.91326        -0.33696
C         72.15597        49.95592        -0.95501
C         70.90338        50.73729        -1.07696
C         72.13043        52.98523        -0.56053
C         70.89727        52.23544        -0.85859
C         72.09241        54.31358        -0.30001
C         70.85541        55.06982        -0.25795
C         72.07647        57.22612         0.02793
C         70.84348        56.46001        -0.07259
C         72.09240        58.57324         0.07512
C         70.84510        59.40403        -0.04355
C         72.07946        61.49642         0.74066
C         70.85060        60.64043         0.88559
C         72.04875        62.80250         0.46330
C         70.78617        63.56217         0.14975
C         71.97939        65.67205         1.08346
C         70.76139        64.98985         0.69227
C         72.03829        67.00995         1.30929
C         70.88148        67.87731         1.04858
C         72.00016        69.95195         1.91185
C         70.82600        69.29397         1.51362
C         71.99106        71.30522         2.24778
C         70.79726        72.02803         2.17852
O         57.54155        56.37003         1.29535
O         59.20921        46.15296         1.60402
O         70.30445        67.74911        -0.30904
O         68.25780        42.12172         1.88078
O         46.54247        56.39147        -3.20706
O         58.25529        60.03579         1.71244
O         67.01302        39.57408        -1.75509
O         65.55454        59.05176        -1.37692
O         70.90165        51.63696        -2.23907
O         57.04346        47.96530        -1.96942
O         70.31662        41.64436        -1.18317
O         49.39420        54.98128        -0.26846
O         62.85970        54.66772         1.74767
O         67.35363        37.59479         1.53642
O         46.65668        48.72045         2.16243
O         54.51053        49.97320        -2.73934
O         67.59552        67.30656         2.29108
O         60.86628        54.93074        -1.36886
O         51.80314        54.55096        -3.13490
O         65.61730        37.12489        -1.79512
O         70.94683        39.05413        -1.32315
H         70.85042        39.97056        -1.68818
O         59.96210        41.11957         1.85550
H         60.25750        41.97798         2.22717
O         64.60211        40.35419        -2.25116
H         65.50553        40.31679        -2.64635
O         65.70490        63.69962         2.56327
H         66.34319        63.04732         2.93851
O         56.47201        63.29546         1.37505
H         57.02403        62.87984         2.07215
O         54.17736        61.89872         0.87650
H         54.87271        62.49475         1.25964
O         66.79225        58.39026         2.03560
H         66.98863        59.26197         2.46396
O         50.91170        43.34239        -2.21551
H         51.64351        42.78977        -2.56476
O         48.13042        46.18723        -1.81478
H         48.26742        45.23777        -2.02600
O         51.75515        59.49467        -3.70415
H         52.62669        59.94474        -3.69135
O         64.79233        67.21903        -1.35591
H         64.02775        66.74589        -1.74813
O         58.65282        52.41971         1.38226
H         57.85420        52.05091         1.81371
O         58.17196        39.72520        -1.92709
H         58.85854        39.37652        -2.53400
O         65.08181        44.05543        -1.81944
H         64.34391        44.47481        -2.30976
O         41.80976        50.78523         4.65352
H         42.67145        50.32284         4.57534
O         53.93276        52.35787        -3.30556
H         54.41127        51.57295        -3.66635
O         64.20715        52.79948        -1.54735
H         64.89088        53.25174        -2.08663
O         70.76509        63.70478        -1.29984
H         69.90388        64.13219        -1.53959
O         64.74120        40.84576         1.37669
H         64.99509        41.63207         1.91896
O         70.78566        59.91781        -1.40086
H         70.80244        59.15661        -2.01725
O         46.95335        49.79115        -1.96114
H         47.55706        49.15614        -2.40527
O         57.72619        39.52284         1.68275
H         57.18728        40.06784         2.29170
O         60.84985        56.25174         2.11256
H         60.71875        57.13326         2.52030
O         70.83357        60.11110         2.23656
H         70.68167        60.85406         2.85650
O         68.35949        65.08974        -1.23962
H         68.55966        66.02431        -1.46684
O         65.89123        43.48154         1.72419
H         66.74744        43.04041         2.03362
O         65.16727        48.31063         1.73741
H         64.51400        48.79411         2.28701
O         69.71686        39.96431         2.02526
H         69.09595        40.72221         2.28524
O         63.79039        52.17158         2.04761
H         63.53486        53.07979         2.35088
O         66.94196        61.17777         2.58404
H         65.96469        61.08002         2.76594
O         65.61569        48.04673        -1.87716
H         66.38949        47.76079        -2.40718
O         68.50903        48.01766         1.59714
H         67.65353        47.66829         1.93389
O         55.06540        43.98863        -2.21530
H         54.34440        44.49823        -2.64400
O         58.48629        55.54391        -2.04801
H         59.41954        55.60477        -2.36105
O         62.99572        59.51579        -1.83033
H         63.85883        59.70115        -2.26681
O         56.71442        45.70028         1.71194
H         57.51806        45.66889         2.28487
O         64.31125        61.11832         2.27376
H         63.86389        61.91644         2.63599
O         65.98387        56.45325        -1.89866
H         65.96202        57.40654        -2.16414
O         59.84546        52.48538        -2.04614
H         60.55167        53.02637        -2.46178
O         69.19014        49.67244        -2.37963
H         69.54570        50.41899        -2.91877
H         38.95288        49.89933         4.78196
H         36.80839        51.10537         5.09983
H         38.25944        54.35682         2.67844
H         36.46196        53.33663         4.01719
H         40.00125        48.69742         3.48346
H         39.76787        55.24555         1.92319
H         41.78790        47.33209         2.54648
H         41.50487        56.22703         0.53268
H         45.35738        44.96803         1.79913
H         43.48857        46.32031         2.49553
H         44.28456        57.49143        -2.67287
H         42.61924        56.73007        -0.99177
H         46.87062        43.88152         1.18427
H         46.96281        58.84166        -3.81280
H         48.75648        42.57983         0.37446
H         49.03238        60.17079        -3.33811
H         52.32768        40.34958         0.25206
H         50.24207        41.49991        -0.10602
H         52.19929        62.34967        -0.85320
H         50.24377        61.19830        -1.82708
H         53.93805        39.35347        -0.23655
H         54.25128        63.06068        -1.98898
H         55.96965        38.11022         0.11327
H         56.32507        64.32974        -1.54318
H         59.70933        36.00475        -0.58623
H         57.62532        37.22542        -0.74673
H         59.58885        66.80029         0.13480
H         57.49605        65.54818        -0.02393
H         61.32980        35.08908        -0.10566
H         61.19616        67.74471         0.58127
H         63.40965        33.87373         0.19920
H         63.26264        68.99290         0.42209
H         67.14788        31.69932         0.45465
H         65.10380        32.86557        -0.15368
H         67.08376        71.09616         1.08752
H         65.01613        69.94028         0.55376
H         68.60303        30.81734         1.27023
H         68.69080        71.97394         1.76273
H         72.77747        30.88371         2.31496
H         70.63436        29.63054         1.98746
H         72.86606        33.31120         1.92041
H         72.97208        35.10434         1.31688
H         73.07187        37.48204         0.79041
H         73.13925        39.45820         0.77258
H         73.16318        41.86435         0.65640
H         73.15353        43.86443         0.29237
H         73.11501        46.30791         0.16480
H         73.11445        48.10165        -0.63266
H         73.10251        50.46770        -1.17931
H         73.09681        52.46485        -0.60954
H         73.04252        54.83180        -0.11405
H         73.03555        56.69108         0.05961
H         73.05911        59.09615         0.11610
H         73.04994        61.01175         0.93084
H         73.00227        63.33963         0.34928
H         72.88352        65.07324         1.26054
H         72.96297        67.44677         1.71236
H         72.95091        69.40287         1.94947
H         72.92247        71.80049         2.55406
H         70.78273        73.09607         2.43563
