         300
 CSIRO Nanostructure Databank - Neutral Graphene Oxide Data Set
C         30.59028        31.44373         0.69282
C         30.59307        32.44813        -0.02980
C         30.54302        35.80310        -1.31215
C         30.77344        37.07118        -1.04101
C         30.47353        40.26644        -0.68668
C         30.27363        41.47620        -0.49918
C         33.19485        28.77760         0.50314
C         32.10746        29.33130         0.68690
C         33.10129        31.60016         0.57753
C         31.86004        30.74811         0.97037
C         33.00017        33.13210         0.34864
C         31.35119        33.52989        -0.63417
C         33.46585        36.06266        -0.84266
C         30.72021        34.83890        -0.28275
C         32.90321        37.30731        -0.18327
C         31.75165        38.01980        -0.91141
C         32.79446        40.21689        -0.44676
C         31.66432        39.44059        -0.70307
C         32.71967        41.73542        -0.41066
C         31.31684        42.31950         0.19469
C         32.57515        44.31574        -0.00448
C         31.40596        43.82834        -0.12731
C         35.79437        27.26739         0.73058
C         35.80732        28.68196         0.18187
C         34.45579        29.36138         0.03305
C         35.64636        31.62009         0.36752
C         34.36342        30.87569         0.10458
C         35.61602        33.11121         0.27057
C         34.34581        33.77794        -0.33456
C         35.12150        35.97061         1.01778
C         34.36588        35.29657        -0.13381
C         35.21384        37.52688         0.81614
C         34.05822        38.22935         0.19523
C         35.47073        40.31996        -0.54496
C         34.12517        39.48804        -0.66335
C         35.27523        41.89625        -0.36265
C         33.94255        42.36753         0.29704
C         35.08876        44.75709         0.35084
C         33.88920        43.93859         0.17512
C         35.31285        46.12977        -0.13612
C         38.00088        27.21769         1.87038
C         36.76765        26.72007         1.25722
C         37.98066        28.73372         1.71812
C         36.70403        29.42181         1.23329
C         37.91624        31.67266         1.54599
C         36.63554        30.91876         1.27732
C         37.89551        33.16038         1.40253
C         36.48741        33.80226         1.33629
C         37.82610        36.10258         1.01229
C         36.51762        35.33183         1.23133
C         37.71102        37.45005         0.49316
C         36.53954        38.27386         0.95976
C         37.72795        40.34082         0.50170
C         36.54014        39.68574         0.36054
C         37.72809        41.82089         0.58960
C         36.44008        42.54231         0.40365
C         37.74411        44.77041         0.06243
C         36.44469        44.05699         0.41530
C         37.76410        46.24882        -0.28996
C         36.38622        46.74731        -0.14962
C         40.59881        24.48168         1.43405
C         39.52079        25.07122         1.62008
C         40.46620        27.24484         1.04181
C         39.32547        26.52715         1.75720
C         40.37302        28.70308         0.71606
C         39.27842        29.45291         1.42919
C         40.14954        31.57380         0.26701
C         39.20631        30.93620         1.27032
C         40.14483        33.10249         0.34830
C         39.10112        33.83920         0.82695
C         39.98066        35.92579        -0.30213
C         39.22123        35.38833         0.94931
C         40.11804        37.45265        -0.37714
C         38.81547        38.22729        -0.14943
C         40.21353        40.31797         0.17338
C         39.01249        39.56017         0.74473
C         40.21653        41.81751         0.11646
C         39.02473        42.57692         0.63574
C         40.29360        44.74790         0.07581
C         39.03664        44.11239         0.48041
C         40.29347        46.13739        -0.38112
C         39.03791        46.99117         0.05786
C         40.40195        48.93327        -0.65782
C         39.33062        48.33354        -0.54274
C         43.14068        24.54586         0.57756
C         41.72479        24.94333         0.62267
C         42.85851        27.34231         0.14009
C         41.62041        26.46812         0.43441
C         42.37324        28.52595        -0.77041
C         41.37367        29.35885         0.05773
C         42.50443        31.53561        -0.61767
C         41.55057        30.86201         0.33627
C         42.62402        33.01390        -0.47390
C         41.40645        33.79229        -0.05744
C         42.64657        35.97028        -0.54396
C         41.33773        35.24380        -0.43195
C         42.73343        37.42094        -0.25849
C         41.44830        38.16771        -0.37777
C         42.77892        40.32728        -0.31933
C         41.54706        39.57473         0.20519
C         42.79929        41.82378        -0.28232
C         41.46809        42.61959        -0.30510
C         42.86892        44.63273        -0.07218
C         41.55556        43.99769         0.43132
C         42.91016        45.98878        -0.72180
C         41.62451        46.82020        -0.68477
C         43.05138        48.79485        -0.73997
C         41.72334        48.34847        -0.23816
C         44.06098        25.23518         0.12923
C         45.07888        27.28827        -1.26287
C         44.01687        26.56281        -0.51056
C         44.95851        28.81463        -1.63858
C         43.53666        29.35019        -1.38566
C         45.28322        31.91430        -1.70195
C         43.32560        30.80988        -1.40180
C         45.18123        32.97203        -0.85841
C         43.88492        33.73252        -0.90600
C         45.12831        35.78813         0.07172
C         43.94599        35.19945        -0.64993
C         45.10195        37.23357         0.45015
C         43.90418        38.04663         0.06455
C         45.13357        40.17684         0.77178
C         44.10568        39.53532        -0.16305
C         45.27163        41.66135         0.57332
C         43.94424        42.41540         0.58582
C         45.41746        44.59688         0.06714
C         44.09636        44.00246         0.58200
C         45.48618        45.94578        -0.62676
C         44.27473        46.66355        -1.19266
C         44.05979        48.08769        -0.81110
C         47.47871        27.58781        -1.16316
C         46.47383        26.87412        -1.27528
C         47.67482        28.91900        -1.74561
C         46.34132        29.62564        -1.93490
C         47.84705        31.95555        -1.91778
C         46.52406        31.17172        -2.00259
C         47.64562        33.47816        -1.54262
C         46.37724        33.85780        -0.85232
C         47.71490        35.83478        -0.17158
C         46.45407        35.01568         0.13113
C         47.70214        37.37898         0.03295
C         46.46143        37.82551         0.89495
C         47.63070        40.07647         1.35923
C         46.34467        39.34614         1.09870
C         47.69407        41.56821         1.07997
C         46.47806        42.30009         0.61032
C         47.98179        44.43907         0.27473
C         46.64481        43.66061        -0.06965
C         47.91007        45.58472        -0.73278
C         46.86881        46.10996        -1.13561
C         50.11152        29.03051        -1.24737
C         48.93128        29.65669        -1.53411
C         50.59007        31.67676        -1.26420
C         49.14518        31.13078        -1.73114
C         50.95725        33.16163        -1.15835
C         48.60043        34.65522        -1.39678
C         50.34740        35.92091         0.01434
C         49.04180        35.08989        -0.04032
C         50.16169        37.22786         0.78109
C         48.97871        37.89807         0.76290
C         50.17262        40.05715         1.64476
C         48.90782        39.26160         1.40445
C         50.15504        41.53626         1.61405
C         49.05834        42.15712         0.84987
C         50.51414        44.03419         0.66519
C         49.20031        43.55274         0.25048
C         51.25129        29.40061        -0.78376
C         52.50017        31.43490         0.21513
C         51.54537        30.72774        -0.57861
C         52.44769        32.62870         0.57907
C         51.64973        33.70330         0.07374
C         52.24531        35.68869         1.50026
C         51.46245        34.96669         0.56504
C         52.46632        36.91114         1.63180
C         51.45889        37.89916         1.20337
C         52.50517        40.19427         2.15373
C         51.51489        39.35546         1.45997
C         52.48135        41.41846         2.29700
C         51.33035        42.38010         2.25099
C         51.45988        43.54566         1.29163
O         44.68680        36.18764         1.40175
O         49.26589        42.43034        -0.64050
O         46.59015        34.16194        -2.29302
O         36.32028        32.31653        -0.73201
O         39.10675        43.42883         1.77970
O         39.83079        40.97997        -1.05027
O         41.85058        35.60698        -1.74036
O         44.02670        34.67358        -2.01261
O         49.47911        39.35544         2.74997
O         47.04780        29.03154        -3.05039
O         45.60678        45.86105         0.80747
O         37.85350        45.24186        -1.31999
O         32.71498        31.27587         1.97565
O         39.76050        30.35545         2.48454
O         40.73317        46.48220        -1.75055
O         35.79205        44.53480         1.62421
O         34.24176        38.29573         1.62548
O         42.82880        44.77001        -1.51702
O         37.15961        35.95823         2.34062
O         50.24064        31.38545        -2.64216
O         40.72992        37.94899        -1.62393
O         43.44343        42.08374         1.87644
O         38.06391        32.52614         2.71558
O         47.22402        31.64717        -3.18832
O         36.79060        42.09493         1.73556
O         40.39305        27.12554         2.51852
O         34.29527        30.16374        -1.16769
O         44.15600        31.41804        -2.34322
O         35.99755        30.10913         2.29858
O         51.86884        38.86285         0.16904
O         44.06691        26.51170        -1.94593
O         42.43253        33.45268         0.92987
O         47.55334        41.04205         2.43433
O         50.88276        33.84162        -2.17056
O         43.98916        28.89422        -2.69861
O         42.84895        41.08433        -1.56452
O         41.28639        25.52633        -0.62386
O         39.87387        35.74374         2.09393
O         45.30489        39.62983         2.09723
O         37.83854        28.07431         3.00961
O         41.62705        27.98716        -1.85989
H         42.26677        27.57659        -2.48872
O         42.15810        30.93654         1.63186
H         41.46121        30.81527         2.32422
O         47.62551        38.08049        -1.21489
H         48.35445        37.76792        -1.79246
O         46.69478        43.32613        -1.47743
H         47.54539        42.85820        -1.65115
O         35.79725        33.51120         2.56147
H         36.47546        33.24190         3.23032
O         41.53825        43.83750         1.83440
H         42.19312        43.10473         2.09220
O         38.35127        38.67751        -1.44634
H         39.16161        38.81237        -2.00071
O         44.79583        39.54091        -1.44323
H         44.27440        40.09751        -2.07087
O         33.00407        35.70234        -2.04358
H         33.43390        34.84736        -2.30800
O         41.89805        39.39319         1.59305
H         41.09654        39.14428         2.11493
O         36.10630        40.21842        -1.84747
H         36.88777        39.60297        -1.79930
O         46.75573        37.28884         2.19944
H         46.13059        37.70287         2.83617
O         49.07917        34.01490         0.89874
H         48.23053        34.03903         1.42134
O         33.92383        42.01085         1.66656
H         34.71194        42.38476         2.12129
O         32.26678        36.84040         1.03555
H         32.96793        36.61717         1.70538
O         43.39562        27.87597         1.35412
H         42.68334        28.29199         1.88691
O         39.20042        35.51574        -1.44370
H         39.73782        35.73863        -2.23851
O         32.75455        42.17823        -1.77500
H         31.95161        41.83667        -2.22420
O         48.92383        35.27164        -2.55694
H         48.25748        35.02062        -3.23498
O         36.70206        38.49900         2.39627
H         35.83935        38.84004         2.72897
O         31.55141        33.39140        -1.99889
H         31.29977        34.23975        -2.43679
O         35.31360        42.52724        -1.64312
H         35.71704        41.88888        -2.28140
O         50.78192        36.36620        -1.26731
H         50.99138        35.58618        -1.84258
O         39.26337        39.24173         2.10170
H         38.42865        38.89390         2.51595
O         39.06020        47.12534         1.46706
H         39.87046        47.62529         1.72542
O         31.23979        42.17125         1.56365
H         30.35280        42.42727         1.88670
O         36.51007        28.72531        -1.03920
H         35.87876        28.66828        -1.78747
O         34.43125        35.76157         2.26449
H         35.04943        35.99869         2.99021
O         44.32216        46.58765        -2.60783
H         43.85500        45.77302        -2.89755
O         41.72725        48.33676         1.17971
H         42.02481        49.20966         1.51230
O         47.94766        44.97008         1.57286
H         47.16823        45.57809         1.63994
O         34.08440        38.93675        -1.99926
H         34.19918        39.67346        -2.63707
O         44.07301        44.41752         1.95569
H         44.01262        43.58156         2.49750
O         41.19168        42.98589        -1.66124
H         41.40705        42.21016        -2.22815
O         39.57697        31.22847        -1.02062
H         40.11265        31.63659        -1.73340
O         50.94668        42.81510         3.51824
H         51.68590        43.29562         3.94251
O         32.76912        33.76481         1.54123
H         32.50343        33.09560         2.21880
O         34.30697        33.45427        -1.72309
H         35.05871        32.84008        -1.91983
O         46.53082        34.41643         1.45335
H         46.23002        35.12118         2.08184
O         30.33242        34.99268         0.95380
H         30.00455        35.90275         1.11489
