         598
 CSIRO Nanostructure Databank - Neutral Graphene Oxide Data Set
C         23.95513        69.43028         4.07301
C         23.93534        70.81495         4.30068
C         22.84173        71.51310         4.84545
C         24.05442        73.65049         4.90259
C         22.93028        72.89285         5.15217
C         26.20019        65.28564         2.55214
C         26.20303        66.71299         2.73759
C         25.05661        67.37278         3.22879
C         26.31160        69.46005         3.29280
C         25.08746        68.75590         3.50426
C         26.39525        70.86058         3.71167
C         25.11138        71.60369         3.86836
C         26.49559        73.76241         4.07339
C         25.18287        73.09560         4.15645
C         28.00514        60.89516         1.04118
C         27.73019        62.29523         0.97053
C         27.14608        63.11787         1.91639
C         28.39031        65.31464         1.46644
C         27.21977        64.57375         1.91515
C         28.62705        66.66556         2.12875
C         27.39083        67.44873         2.47358
C         28.65844        69.62974         2.47052
C         27.46891        68.82826         2.78402
C         28.74435        70.98018         2.72338
C         27.66329        71.63702         3.47766
C         28.85679        73.78816         3.39614
C         27.62007        73.12000         3.58510
C         30.45845        56.96985        -0.69149
C         30.36780        58.36322        -0.62126
C         29.31977        58.91947         0.17058
C         30.45635        61.50122        -0.79879
C         28.81690        60.23221         0.10585
C         30.57385        62.79840        -0.30605
C         29.39110        63.50622         0.07626
C         30.71438        65.50602         0.41249
C         29.44871        64.75235         0.75262
C         30.81237        66.87155         1.01754
C         29.72811        67.50172         1.52632
C         31.00098        69.67546         1.57184
C         29.64507        69.01543         1.49906
C         31.04533        71.07039         1.74214
C         29.77863        71.87559         2.01031
C         31.18022        73.94370         2.97945
C         29.98959        73.21192         2.77903
C         32.80549        52.77167        -1.69626
C         32.77716        54.16756        -1.71668
C         31.57981        54.87656        -1.38641
C         32.72726        57.02163        -1.67177
C         31.53571        56.26610        -1.31534
C         32.71545        58.40147        -1.52877
C         31.38576        59.15276        -1.45644
C         32.95341        61.27681        -0.81920
C         31.60742        60.64573        -1.11583
C         33.04769        62.55240        -0.10458
C         31.89188        63.35556         0.05189
C         33.23974        65.27573         1.06337
C         31.96019        64.65972         0.53645
C         33.34774        66.75644         0.74983
C         32.09471        67.57389         0.80667
C         33.44322        69.57376         1.43804
C         32.18121        68.97270         1.25995
C         33.49147        70.96142         1.60183
C         32.28207        71.66772         1.48939
C         33.73154        73.91443         2.79828
C         32.45090        73.69720         2.36294
C         35.35635        48.56970        -1.59365
C         35.30831        49.99577        -1.64169
C         34.07645        50.66859        -1.72888
C         35.26543        52.80728        -1.94871
C         34.03357        52.07166        -1.79142
C         35.23073        54.20062        -2.17456
C         33.99382        54.89403        -2.02341
C         35.10353        57.05320        -2.36575
C         33.93518        56.31181        -2.02718
C         35.16751        58.40655        -2.04872
C         34.02382        59.05416        -1.40795
C         35.44668        61.19114        -0.99503
C         34.18269        60.43513        -0.85461
C         35.55771        62.47854        -0.48489
C         34.38959        63.08421         0.20284
C         35.75722        65.26639         0.37074
C         34.51545        64.52021         0.68450
C         35.83581        66.69179         0.67530
C         34.66002        67.39743         0.96932
C         35.93855        69.56296         1.09085
C         34.72478        68.78358         1.54797
C         35.97294        70.95763         1.26729
C         34.78706        71.64628         1.85170
C         36.11759        73.79542         1.84930
C         34.89418        73.10792         2.27913
C         37.81774        44.36888        -0.63939
C         37.46592        45.77514        -0.24077
C         36.66672        46.41446        -1.39697
C         37.71118        48.66793        -1.03068
C         36.53919        47.91346        -1.30347
C         37.74469        50.05701        -1.25413
C         36.53053        50.74600        -1.58764
C         37.75425        52.90045        -1.91436
C         36.52134        52.14668        -1.82878
C         37.79545        54.17571        -2.49025
C         36.45761        54.84617        -2.72726
C         37.40323        57.24200        -3.30716
C         36.26550        56.38061        -2.97878
C         37.53002        58.55436        -2.91257
C         36.33701        59.21794        -2.36438
C         37.91672        61.12102        -1.61304
C         36.52313        60.60811        -1.79750
C         38.01562        62.49983        -0.97938
C         36.78287        63.20398        -0.55246
C         38.19798        65.20489        -0.13099
C         36.85891        64.56118        -0.14463
C         38.31312        66.63960         0.31910
C         37.08165        67.40630         0.60363
C         38.32402        69.58494         0.54426
C         37.11900        68.83983         0.73969
C         38.33763        70.99445         0.64391
C         37.16512        71.68729         1.05913
C         38.39640        73.83449         0.96088
C         37.20122        73.12236         1.29612
C         40.26417        40.07326        -0.11486
C         39.70343        41.37603         0.10167
C         39.17358        42.32490        -0.73219
C         39.98981        44.38269         0.50832
C         38.94305        43.68942        -0.22373
C         39.96056        45.86330         0.53297
C         38.70760        46.60012         0.13320
C         40.15082        48.71545        -0.36127
C         38.84026        48.02687        -0.32613
C         40.15916        50.10599        -0.75771
C         38.97130        50.77783        -1.11469
C         40.27591        52.87931        -1.55810
C         38.94244        52.29109        -1.18440
C         40.30263        54.13725        -2.19661
C         39.12187        54.80555        -2.69666
C         40.47682        56.86627        -3.24202
C         39.32415        56.05044        -3.36685
C         40.54341        58.27084        -3.47529
C         38.67436        59.40029        -3.19010
C         40.31498        61.17325        -2.45203
C         38.99694        60.56537        -2.49129
C         40.41758        62.50557        -1.77804
C         39.22475        63.28562        -1.30568
C         40.44737        65.46434        -1.33981
C         39.30193        64.59853        -0.92933
C         40.64975        66.81664        -0.77924
C         39.60281        67.38094         0.08823
C         40.76603        69.65232        -0.17709
C         39.59994        68.88932         0.29350
C         40.73599        71.07490         0.04451
C         39.56559        71.73316         0.41557
C         40.72845        73.94908         0.23474
C         39.55828        73.18607         0.54163
C         42.46804        36.00386         1.37349
C         42.52896        37.43452         1.37447
C         41.54317        38.11387         0.59282
C         42.30898        40.26606         1.43038
C         41.34612        39.51310         0.60960
C         42.00665        41.49663         1.93826
C         40.95381        42.40410         1.52431
C         42.51871        44.30564         0.79373
C         41.11370        43.73875         1.12163
C         42.52997        45.81214         0.39300
C         41.27260        46.63244         0.49631
C         42.57094        48.77639         0.03439
C         41.31790        48.05826         0.03058
C         42.58210        50.15775        -0.29729
C         41.40768        50.82896        -0.72336
C         42.74957        52.87606        -1.19289
C         41.46109        52.19251        -1.16727
C         42.78715        54.19954        -1.67374
C         41.63937        54.73447        -2.39211
C         42.86277        57.04250        -2.56158
C         41.71590        56.21051        -2.86272
C         42.84854        58.41515        -2.74188
C         41.61614        59.08946        -3.06881
C         42.80194        61.23941        -2.80237
C         41.52451        60.52276        -2.82968
C         42.85095        62.59666        -2.55220
C         41.70953        63.27429        -1.92134
C         42.92819        65.53149        -1.99044
C         41.67896        64.77522        -1.90567
C         42.95251        66.92618        -1.74749
C         41.80593        67.55849        -1.05662
C         43.15994        69.67749        -0.82186
C         41.87893        68.95321        -0.66384
C         43.19521        71.16106        -0.58243
C         41.98016        71.86068        -0.07599
C         43.13664        74.05540        -0.35495
C         41.93692        73.34302        -0.11707
C         44.78637        33.33254         2.64759
C         43.59988        33.83195         2.09249
C         44.88571        36.29664         2.83065
C         43.21601        35.19133         2.22910
C         44.85697        37.58475         2.28605
C         43.65828        38.19114         1.86466
C         44.96197        40.41034         2.03263
C         43.72592        39.65769         1.45798
C         45.06978        41.82888         2.10255
C         43.89349        42.65563         2.20245
C         45.03621        44.60200         1.45292
C         43.74695        43.88914         1.62293
C         45.06150        45.97531         0.86240
C         43.80731        46.58664         0.32224
C         45.05351        48.68443         0.06555
C         43.81621        48.07404         0.22544
C         45.14417        50.14460         0.06361
C         43.83166        50.92923        -0.15283
C         45.24371        53.04116        -0.55536
C         43.93146        52.27033        -0.71719
C         45.30348        54.30813        -1.36665
C         44.01460        54.99866        -1.52289
C         45.34323        57.02337        -2.32778
C         44.05308        56.41938        -1.98398
C         45.32705        58.42232        -2.67901
C         44.10726        59.13206        -2.73117
C         45.30804        61.22084        -3.10836
C         44.08969        60.53585        -2.94589
C         45.21888        62.69951        -3.45736
C         44.13554        63.32298        -2.59871
C         45.30307        65.57119        -2.91817
C         44.16051        64.80296        -2.34501
C         45.28715        67.06608        -2.74617
C         44.11783        67.66472        -2.06965
C         45.35842        69.88026        -2.19699
C         44.28143        69.03839        -1.58373
C         45.38151        71.35833        -1.94690
C         44.21826        72.01239        -1.25983
C         45.51581        74.09744        -1.09206
C         44.32017        73.42936        -0.82826
C         45.91417        34.06682         3.05497
C         47.30252        36.15030         2.86500
C         46.05281        35.47478         2.92879
C         47.38649        37.51045         2.50898
C         46.18459        38.19833         1.88476
C         47.44061        40.34127         2.10401
C         46.18168        39.69394         2.06422
C         47.51423        41.74392         1.89796
C         46.30555        42.48433         1.86350
C         47.52828        44.49964         1.20132
C         46.31751        43.87018         1.52875
C         47.54221        45.84615         0.66064
C         46.34254        46.50785         0.40123
C         47.61126        48.52625        -0.35199
C         46.28624        47.86496        -0.15422
C         47.68394        50.00615        -0.31771
C         46.45584        50.83000        -0.21722
C         47.64580        52.74880        -1.27316
C         46.48652        52.20703        -0.77474
C         47.74563        54.14529        -1.71378
C         46.48471        54.89525        -1.78337
C         47.75220        56.91308        -2.69999
C         46.49163        56.25943        -2.29937
C         47.78776        58.39217        -2.74615
C         46.56414        59.11304        -2.82794
C         47.81818        61.19809        -3.08555
C         46.55552        60.52833        -3.02549
C         47.83822        62.66696        -3.27908
C         46.55611        63.43757        -3.38852
C         47.79729        65.56313        -2.90213
C         46.60384        64.87598        -3.03179
C         47.79044        67.01066        -2.69980
C         46.61883        67.71532        -2.63753
C         47.89185        69.94321        -2.50899
C         46.62233        69.19314        -2.59731
C         47.87661        71.35974        -2.27613
C         46.66900        72.06719        -1.98525
C         47.92900        74.12623        -1.62699
C         46.69146        73.43636        -1.59416
C         48.60072        38.20437         2.54851
C         49.90289        40.27506         2.15458
C         48.67909        39.59880         2.24752
C         49.98321        41.66991         1.84942
C         48.75655        42.40918         1.70667
C         50.01634        44.43329         1.11792
C         48.77029        43.78242         1.34609
C         50.04454        45.79324         0.67905
C         48.81949        46.47568         0.40036
C         50.08627        48.50781        -0.18137
C         48.86782        47.81628        -0.03917
C         50.08942        49.86750        -0.69762
C         48.91255        50.56240        -0.90046
C         50.14259        52.48958        -1.97745
C         48.84010        51.89312        -1.51245
C         50.25637        53.99690        -2.05771
C         48.95587        54.72190        -2.06344
C         50.22718        56.94255        -2.14324
C         49.04292        56.13941        -2.52181
C         50.21655        58.35351        -2.31148
C         49.02035        59.06795        -2.74932
C         50.30531        61.22463        -2.99075
C         49.02115        60.49302        -2.93873
C         50.28014        62.70550        -3.00934
C         49.06637        63.41839        -2.96331
C         50.30111        65.53542        -2.82975
C         49.07243        64.83927        -2.92565
C         50.30255        67.01208        -2.91424
C         49.08734        67.72597        -2.33810
C         50.32521        69.93880        -2.59827
C         49.09114        69.23050        -2.58652
C         50.34580        71.33979        -2.39669
C         49.12384        72.04930        -2.20512
C         50.37646        74.14867        -1.83504
C         49.13180        73.45924        -1.90668
C         51.20510        42.34931         1.69546
C         52.47333        44.42822         1.21691
C         51.24881        43.72693         1.34038
C         52.51545        45.79743         0.85285
C         51.28632        46.47094         0.52628
C         52.55576        48.53851         0.06668
C         51.32328        47.83593         0.10145
C         52.53941        49.99214        -0.23686
C         51.35850        50.49774        -1.01060
C         53.08773        52.92838        -1.16076
C         51.33968        51.65564        -1.73544
C         52.69167        54.23065        -0.97419
C         51.50198        54.83268        -1.64574
C         52.26199        57.09841        -0.81112
C         51.30968        56.30815        -1.48791
C         52.25258        58.49921        -0.95851
C         51.31471        59.10656        -1.81651
C         52.57819        61.28870        -1.63163
C         51.52655        60.49288        -2.27331
C         53.02969        62.47858        -2.21598
C         51.46046        63.46025        -3.12035
C         52.81798        65.50780        -2.57412
C         51.54881        64.85166        -2.86289
C         52.95345        66.98046        -2.97668
C         51.60221        67.72931        -3.01091
C         52.89307        69.94900        -2.56610
C         51.59305        69.22952        -2.86835
C         52.80066        71.33734        -2.09650
C         51.60747        72.02833        -2.16526
C         52.82728        74.16506        -1.82649
C         51.59356        73.46950        -1.91522
C         53.72309        46.54291         0.85931
C         54.92725        48.71259         0.79110
C         53.75030        47.92032         0.53947
C         54.95409        50.10297         0.66115
C         53.76519        50.80553         0.09787
C         54.87722        52.98524         0.47483
C         53.97492        52.23365        -0.27862
C         54.76974        54.41492         0.49230
C         53.48328        54.99371         0.01455
C         54.38489        57.31064         0.58168
C         53.26729        56.48101         0.08322
C         54.25274        58.69242         0.60186
C         53.11667        59.33849        -0.08654
C         54.18768        61.77226         0.33023
C         53.15988        60.84040        -0.34957
C         54.76411        62.80713        -0.61796
C         53.83219        63.44954        -1.57256
C         55.06282        65.58480        -1.44379
C         53.90180        64.82875        -1.95281
C         55.15540        67.02463        -1.69290
C         54.04997        67.74072        -2.23508
C         55.28901        69.86192        -1.88690
C         54.08791        69.14126        -2.21711
C         55.28973        71.26856        -1.81049
C         54.01340        71.99328        -1.48655
C         55.27296        74.15676        -1.71343
C         54.05542        73.48257        -1.74973
C         56.00106        50.90274         1.18925
C         56.83505        53.13389         1.92008
C         55.92777        52.31869         1.21865
C         56.82659        54.55392         1.85512
C         55.76161        55.21514         1.07772
C         56.68005        57.51952         1.26083
C         55.59687        56.66022         1.01580
C         56.55513        58.88317         1.59645
C         55.26887        59.51592         1.28425
C         56.57103        61.71968         1.37080
C         55.29102        61.05639         1.11865
C         56.77991        63.07511         0.93139
C         55.96233        63.57199        -0.20393
C         57.05461        65.80606         0.01779
C         56.01658        64.97815        -0.63638
C         57.47117        67.00229        -0.76401
C         56.34502        67.73640        -1.37411
C         57.73941        69.80040        -1.27745
C         56.48246        69.12112        -1.57230
C         57.86184        71.22592        -1.67315
C         56.54649        72.00765        -1.88550
C         57.68289        74.17235        -1.36393
C         56.53250        73.47707        -1.65502
C         57.74772        55.22614         2.71069
C         58.63575        57.55383         3.36967
C         58.14771        56.57258         2.51902
C         58.64765        58.96646         3.01718
C         57.60659        59.60540         2.22400
C         58.65518        61.80653         2.66897
C         57.58547        61.04763         2.12361
C         58.65629        63.26501         2.50604
C         57.78206        63.84598         1.47961
C         59.22988        65.96818         1.38506
C         57.93966        65.27044         1.10229
C         59.53882        67.13918         0.73649
C         58.71343        67.72251        -0.35393
C         60.17772        69.83277        -0.57159
C         58.80355        69.16875        -0.66098
C         60.10704        71.34017        -0.43350
C         59.08583        72.00173        -1.26506
C         59.96976        74.20134        -0.30504
C         58.99025        73.53040        -1.16809
C         59.62423        59.77374         3.61323
C         60.84875        61.91950         3.81234
C         59.70408        61.17736         3.39332
C         61.03483        63.27497         3.49790
C         59.90821        64.03604         2.91437
C         61.36716        65.98851         2.63346
C         60.19213        65.35252         2.29877
C         61.47472        67.46316         2.35048
C         60.81020        67.82995         1.04263
C         62.08797        70.01958         1.18293
C         61.10089        69.18094         0.46096
C         62.12154        71.40073         1.00738
C         61.06890        72.07165         0.23500
C         61.98208        74.32685         1.11320
C         60.99604        73.52704         0.28522
C         62.24457        63.95718         3.73837
C         63.61414        66.00949         3.65830
C         62.42108        65.32115         3.37904
C         63.85500        67.35568         3.22014
C         62.85803        68.03359         2.46444
C         64.21263        70.07190         2.43785
C         63.05669        69.35882         2.01753
C         64.29663        71.46962         2.18858
C         63.20430        72.15397         1.57250
C         64.36751        74.27392         1.88319
C         63.23801        73.57859         1.48983
C         65.06479        68.02683         3.50960
C         66.40758        70.11445         3.53268
C         65.24791        69.39035         3.16416
C         66.52299        71.49877         3.26543
C         65.44363        72.19167         2.62298
C         66.66901        74.29938         2.83149
C         65.50701        73.60114         2.42656
C         67.67166        72.24320         3.65001
C         67.73527        73.61574         3.42427
O         34.26538        59.34529         0.12111
O         28.16795        62.95654        -0.21786
O         38.28669        61.26134        -0.21635
O         43.70823        35.82206         3.40690
O         50.81404        67.41880        -4.23069
O         48.46942        56.32899        -3.85012
O         52.26092        60.28873         0.65988
O         54.75813        60.41341         2.31978
O         51.37486        60.59495        -3.71915
O         36.07786        55.39042        -4.03514
O         58.67769        66.85056        -1.56933
O         49.22554        67.60296        -0.93370
O         38.57368        65.52415         1.25758
O         27.36889        71.04775         4.80303
O         39.52168        58.91459        -4.19109
O         56.03135        62.51655        -1.28141
O         45.63090        69.65605        -3.60761
O         51.23479        54.45347        -3.03197
O         43.06655        71.42684         0.84320
O         52.62372        62.79425        -3.52239
O         24.81059        72.54431         2.81211
O         47.32505        63.12074        -4.60480
O         43.84833        56.12135        -0.54281
O         36.07197        60.44040        -3.18570
O         32.36839        61.33717        -2.19089
O         56.75771        66.10712         1.43155
O         47.34357        50.64759         0.96649
O         52.67959        55.60361         1.10431
O         44.25162        71.94298        -2.71832
O         38.39387        47.66139         1.07361
O         59.59443        72.85963        -2.32480
O         41.39409        62.58387        -0.66475
O         44.96545        66.42676        -4.04567
O         46.86685        48.01267        -1.51296
O         52.61733        50.74986         1.05513
O         58.71125        64.04568         3.76084
O         40.03990        67.95756         1.35399
O         52.39588        69.81886        -3.94438
O         52.54321        52.18059        -2.20704
O         32.73913        67.25797        -0.50246
O         34.70624        63.39312         1.61422
O         61.72183        67.95397        -0.09075
O         42.85340        42.04799         2.89578
O         57.39487        71.54153        -2.99825
O         29.06028        69.39973         0.24939
O         44.29456        69.06169        -0.10377
O         44.59991        63.83099        -1.31023
O         57.96536        57.00183         1.17785
O         29.21376        60.96950        -1.05156
O         39.70437        41.81897         1.47870
O         40.57973        46.40834         1.75117
O         38.31718        56.62231        -4.15415
O         44.45259        50.78349         1.18491
O         32.34945        73.01439         1.14140
O         42.01679        55.08457        -3.77510
O         49.21334        51.92038        -2.95370
O         35.09959        71.99334         3.24826
O         43.22471        45.98059        -0.89178
O         40.65189        65.36213        -2.79686
O         45.01865        45.82290         2.32927
O         53.86810        71.85793        -0.02075
H         53.03534        72.31239         0.23129
O         29.17755        66.28156         3.45150
H         28.45006        65.87881         3.97324
O         36.61273        45.72317         0.92275
H         36.83098        46.50997         1.47405
O         38.71072        52.71976         0.21850
H         39.41755        52.31999         0.77013
O         60.67144        68.13353         3.38323
H         60.96218        67.79722         4.25741
O         37.38550        46.11780        -2.60766
H         36.91831        46.54139        -3.35688
O         46.30762        37.95472         0.44686
H         45.62617        38.52719         0.01008
O         33.12809        65.23212         2.51671
H         33.51738        64.37120         2.80056
O         29.17930        72.17044         0.72885
H         29.04803        71.27769         0.29333
O         30.86110        59.15233        -2.80966
H         31.39146        59.79582        -3.32997
O         44.74205        62.79332        -4.81950
H         45.53302        62.73196        -5.40350
O         53.42943        66.93178        -4.34992
H         52.63582        66.98232        -4.93193
O         42.78573        43.56507        -0.44024
H         43.21622        44.19454        -1.07219
O         62.28929        75.56408         0.46410
H         62.64756        75.36314        -0.42474
O         45.27328        53.45485         0.84871
H         45.15622        52.63467         1.38777
O         53.44010        62.55605         1.28417
H         53.03436        61.91918         1.91561
O         30.58509        65.74478        -1.03517
H         31.31274        66.36888        -1.28290
O         34.90958        68.56694         2.99444
H         35.78941        68.15370         3.12915
O         44.10490        39.63615         0.02355
H         43.35488        39.24070        -0.47452
O         60.77309        69.60470        -1.87496
H         61.13166        68.68722        -1.86738
H         24.12810        74.67589         5.29289
H         26.54237        74.84199         4.28597
H         28.93998        74.82143         3.77110
H         31.13310        74.75565         3.72470
H         33.91255        74.46647         3.73328
H         36.16678        74.89059         1.94840
H         38.40754        74.92808         1.08293
H         40.66663        75.04625         0.29121
H         43.13921        75.14654        -0.20996
H         45.60084        75.16351        -0.83202
H         47.95647        75.19182        -1.35548
H         50.37457        75.23374        -1.65267
H         52.82174        75.26553        -1.84149
H         55.27802        75.25765        -1.71889
H         57.60879        75.24849        -1.14314
H         59.87099        75.28532        -0.14001
H         61.46953        74.60287         2.08012
H         64.37801        75.37086         1.80011
H         66.72763        75.38667         2.68041
H         23.05986        68.83617         4.31149
H         21.92783        70.96225         5.10950
H         22.08169        73.36132         5.67150
H         25.31751        64.73115         2.90520
H         24.14088        66.79649         3.42504
H         27.67555        60.34424         1.93277
H         26.59356        62.65571         2.74805
H         29.67615        56.37123        -0.19967
H         28.81322        58.22615         0.86088
H         31.87688        52.20608        -1.53144
H         30.69623        54.29141        -1.08994
H         34.43211        47.99613        -1.75932
H         33.13900        50.09489        -1.69470
H         37.08014        43.82994        -1.25162
H         35.64755        45.94071        -1.43823
H         39.77655        39.42320        -0.85838
H         38.97414        42.12058        -1.79318
H         41.84792        35.52642         0.59984
H         40.79972        37.49490         0.06684
H         44.92482        32.24071         2.59715
H         42.98243        33.15892         1.47968
H         46.82588        33.49154         3.27778
H         48.22323        35.60370         3.12194
H         49.51780        37.67103         2.84360
H         50.83773        39.70777         2.27994
H         52.15030        41.80474         1.83951
H         53.41526        43.90248         1.43401
H         54.65074        46.05167         1.18939
H         55.79630        48.20766         1.24066
H         56.85484        50.40401         1.67288
H         57.61555        52.65101         2.52741
H         58.18788        54.64769         3.53772
H         59.02063        57.27497         4.36198
H         60.40106        59.29717         4.22931
H         61.66562        61.37613         4.31060
H         63.07458        63.42194         4.22308
H         64.40964        65.48972         4.21235
H         65.85235        67.50360         4.07177
H         67.22252        69.59738         4.06103
H         68.51122        71.72424         4.13437
H         68.63171        74.17378         3.72928
