         314
 CSIRO Nanostructure Databank - Neutral Graphene Oxide Data Set
C         30.45098        57.11260         0.19260
C         30.17136        58.41492         0.58050
C         29.12469        59.30016         0.19154
C         30.51182        61.40226         0.19309
C         29.28786        60.67956         0.18265
C         32.87664        52.92654         0.54165
C         32.98748        54.38132         0.52897
C         31.80078        55.10646         0.37401
C         32.99908        57.25102         0.23003
C         31.75599        56.52078         0.33991
C         33.06313        58.68229         0.13774
C         32.00155        59.50386         0.58635
C         32.99745        61.63353        -0.27006
C         31.79390        60.84413         0.19559
C         35.40533        48.66076         0.68292
C         35.36093        50.07853         0.80871
C         34.08957        50.68083         0.80001
C         35.71069        53.14539         0.77690
C         33.85118        52.07563         1.02586
C         35.48831        54.44636         0.26612
C         34.22657        55.11838         0.37090
C         35.39988        57.15543        -0.50180
C         34.20839        56.50334         0.02618
C         35.40697        58.60138        -0.64739
C         34.23336        59.35496        -0.34265
C         35.43945        61.43790        -0.69247
C         34.24869        60.78565        -0.43672
C         37.69717        44.31363         0.65617
C         37.67290        45.70476         0.63005
C         36.49655        46.47082         0.51250
C         37.83700        48.52371         0.14423
C         36.56266        47.88799         0.48974
C         37.81413        50.01868         0.05394
C         36.66950        50.81526         0.67491
C         37.73072        52.83198        -0.47487
C         36.71113        52.27290         0.34605
C         37.45035        54.07691        -1.04624
C         36.49780        54.99901        -0.57278
C         37.76844        57.03249        -1.45895
C         36.52154        56.39549        -0.90279
C         37.80734        58.56347        -1.37343
C         36.59613        59.28666        -0.96067
C         37.88989        61.37821        -0.99193
C         36.65272        60.71282        -0.89870
C         40.15094        40.10418         0.37910
C         40.10455        41.43205         0.78642
C         38.90693        42.18327         0.73563
C         40.13037        44.27897         1.16845
C         38.90238        43.58080         0.89232
C         40.19620        45.66470         1.00463
C         38.92736        46.48228         0.93829
C         40.35726        48.27702        -0.17226
C         38.99419        47.77957         0.15129
C         40.53419        49.62079        -0.76610
C         38.72967        50.72428        -0.86036
C         40.21539        52.68193        -1.37995
C         38.89745        52.08557        -0.93645
C         40.37439        54.18730        -1.36883
C         39.26506        54.98625        -1.67390
C         40.33510        57.03895        -1.17355
C         39.12467        56.35607        -1.39659
C         40.34779        58.50712        -1.31071
C         39.09374        59.26158        -1.24922
C         40.35020        61.34499        -0.77793
C         39.11829        60.65740        -1.04386
C         42.60455        36.12288        -1.18254
C         42.58628        37.47270        -0.73830
C         41.38101        38.09623        -0.34316
C         42.63419        40.08099         0.34730
C         41.38559        39.40978         0.15639
C         42.64399        41.33063         1.12419
C         41.33382        42.05461         1.33986
C         42.64940        44.27083         1.51571
C         41.32575        43.53785         1.72929
C         42.65053        45.64989         1.37680
C         41.42688        46.34814         1.14320
C         42.67417        48.60034         0.85932
C         41.53479        47.69083         0.52452
C         42.71268        49.99732         0.26818
C         41.55452        50.49591        -0.55422
C         42.81739        52.66867        -1.01707
C         41.51920        51.88440        -1.12224
C         42.80344        54.14933        -0.82155
C         41.56527        54.87623        -1.01668
C         42.74047        57.02385        -0.54287
C         41.54764        56.31112        -0.96828
C         42.73049        58.41641        -0.40142
C         41.64308        59.23826        -0.94327
C         42.71557        61.32412        -0.10259
C         41.55472        60.67346        -0.59007
C         45.02399        33.47970        -2.28403
C         43.82726        34.08880        -1.91288
C         45.02085        36.20643        -1.61690
C         43.80481        35.46572        -1.55912
C         44.98771        37.64289        -1.33633
C         43.79688        38.23689        -0.71440
C         45.11361        40.24785         0.05034
C         43.83931        39.52883        -0.14416
C         45.16198        41.44307         0.74456
C         43.94720        42.05751         1.31355
C         45.21117        44.33324         1.46323
C         43.93979        43.55494         1.60814
C         45.18244        45.70520         1.55944
C         43.87413        46.44214         1.81740
C         45.24835        48.64655         1.08782
C         43.94010        47.93694         1.36232
C         45.25131        49.96184         0.36106
C         44.03583        50.59088         0.00424
C         45.29805        52.72684        -0.35557
C         44.07711        51.93235        -0.61687
C         45.22749        54.08890        -0.32572
C         43.97202        54.82648        -0.47655
C         45.11043        56.95226         0.12396
C         43.95698        56.27427        -0.26853
C         45.07622        58.34101         0.60165
C         43.78896        59.12289         0.32094
C         45.04991        61.25181         0.64307
C         43.86677        60.60542         0.26851
C         46.22195        34.19704        -2.29662
C         47.48538        36.28789        -1.84814
C         46.24471        35.57384        -1.95299
C         47.55480        37.59952        -1.38742
C         46.31029        38.37591        -1.19696
C         47.58107        40.20888        -0.19787
C         46.35171        39.62077        -0.40480
C         47.63983        41.59111         0.33364
C         46.47464        42.06502         1.19418
C         47.67782        44.23351         1.45646
C         46.45480        43.58799         1.32249
C         47.72548        45.67891         1.81078
C         46.43078        46.50839         1.89026
C         47.69813        48.46302         0.87079
C         46.51786        47.86189         1.16843
C         47.73951        49.83767         0.30400
C         46.48863        50.57171         0.08827
C         47.84858        52.71848        -0.13963
C         46.59289        51.94675        -0.54291
C         47.82593        54.18434        -0.36284
C         46.49201        54.86967        -0.34481
C         47.64591        57.00995         0.53813
C         46.40047        56.24384         0.22315
C         47.54253        58.47616         0.74209
C         46.33068        59.11569         0.78904
C         47.44945        61.31952         1.08133
C         46.28211        60.57359         0.90409
C         48.77908        38.27792        -1.16481
C         50.02840        40.31110        -0.61719
C         48.80557        39.58972        -0.66413
C         50.19379        41.59836        -0.08628
C         48.96195        42.28655         0.45476
C         50.13426        44.23703         1.43574
C         48.93614        43.55867         1.23820
C         50.28008        45.64771         1.36387
C         49.02066        46.39603         1.58214
C         50.19657        48.54279         1.42226
C         49.02352        47.73297         0.88829
C         50.18662        50.00814         1.14343
C         49.02691        50.62112         0.41786
C         50.22190        52.84153         0.60742
C         48.99373        52.10429         0.30601
C         50.25143        54.23406         0.47302
C         49.12818        54.97946        -0.20423
C         50.11428        57.09860         0.62239
C         48.97781        56.39183         0.33661
C         50.07858        58.60963         0.56447
C         48.78441        59.17869         1.09127
C         50.02672        61.41801         1.10930
C         48.75606        60.71209         1.29494
C         51.43661        42.23907        -0.35445
C         52.70871        44.43992        -0.02913
C         51.86654        43.39650         0.33368
C         52.69076        45.74182         0.60247
C         51.48699        46.32385         1.16956
C         52.79543        48.56894         1.49162
C         51.50732        47.78161         1.52568
C         52.66677        50.06620         1.42900
C         51.46522        50.74276         1.13707
C         52.65943        52.89156         1.08358
C         51.43906        52.15321         0.97447
C         52.65665        54.31283         1.01607
C         51.42562        54.98359         0.74806
C         52.47809        57.12572         1.32196
C         51.38555        56.41657         0.80364
C         52.29354        58.51475         1.65482
C         51.24798        59.29047         1.22400
C         52.47693        61.48341         0.97475
C         51.26817        60.75755         1.19254
C         53.81849        46.55836         0.40690
C         55.19094        48.52912         0.51473
C         53.98604        47.89790         0.85459
C         55.57937        49.82993         0.97523
C         53.80683        50.84913         1.65101
C         55.15277        52.90760         1.18813
C         53.89029        52.22098         1.33343
C         55.11032        54.32465         1.18643
C         53.87032        55.02417         1.20650
C         55.10149        57.33723         1.14189
C         53.80141        56.48663         1.43781
C         55.06459        58.77362         0.77549
C         54.09540        59.61622         1.30532
C         54.77164        61.49838        -0.03163
C         53.77476        60.90829         0.77046
C         56.36745        50.78529         0.38009
C         57.48599        52.93021         0.38616
C         56.36927        52.20314         0.75819
C         57.60111        54.37865         0.54566
C         56.35492        55.10736         1.01080
C         57.22715        57.16397        -0.32696
C         56.16700        56.50855         0.50138
C         57.17972        58.63152        -0.52162
C         56.05036        59.36436        -0.08561
C         56.98020        61.38212        -1.13422
C         55.93900        60.76959        -0.40119
C         58.62944        55.11149        -0.22184
C         59.53571        57.15510        -1.24801
C         58.50448        56.44252        -0.57888
C         59.41135        58.52167        -1.58747
C         58.23112        59.26671        -1.20589
C         59.20215        61.29010        -2.22147
C         58.13162        60.66575        -1.51766
C         60.44513        59.20204        -2.27445
C         60.32929        60.56213        -2.58531
O         53.31967        59.14970         2.37514
O         39.51875        49.91776        -1.68880
O         41.30114        47.39697        -0.92595
O         37.60090        57.82680        -2.66018
O         42.31603        49.75508         1.67967
O         37.83294        50.46707         1.47646
O         54.72812        56.95890         2.47161
O         48.03448        42.52845        -0.71156
O         51.28348        43.48334         1.61593
O         34.86060        52.69752         1.79048
O         47.17541        54.64588        -1.62902
O         48.57072        46.13467         2.94318
O         48.70587        49.94762        -0.84848
O         46.92663        56.25631         1.60887
O         43.72187        52.13283        -2.04562
O         57.42914        54.88206         1.94991
O         48.82028        59.72104         2.40753
O         40.92206        52.00830        -2.45116
O         45.52328        38.49480        -2.42722
O         52.28816        48.00565         2.74280
O         31.09682        58.96265         1.50371
O         38.14483        54.37478        -2.22454
O         44.08512        42.55641         2.68885
O         41.90154        41.21047         2.39004
O         56.04811        56.50652        -0.96375
O         41.30117        58.96239        -2.33628
O         54.93334        50.22533         2.17219
O         44.07608        58.57557         1.64700
O         44.57439        48.74820         2.38865
O         49.85621        49.46165         2.48481
O         43.66538        46.47786         3.24773
H         44.40581        47.01006         3.62965
O         38.76975        46.93918         2.33152
H         38.84982        46.15459         2.91569
O         49.65075        55.18275        -1.55940
H         48.87046        55.24101        -2.15983
O         46.25217        46.87316         3.28703
H         47.15619        46.93775         3.68279
O         32.71387        62.31854        -1.50058
H         32.58248        61.64974        -2.20327
O         49.33593        47.38616        -0.48992
H         49.18344        48.20288        -1.03246
O         41.13213        43.56635         3.17838
H         41.74698        42.88945         3.54838
O         50.08839        58.93962        -0.86212
H         50.81528        58.43845        -1.28863
O         46.69628        51.76382        -1.98708
H         46.70864        52.66179        -2.38943
O         46.71110        41.54066         2.53237
H         45.93668        41.81214         3.08072
H         29.66268        56.49962        -0.27057
H         28.17275        58.87754        -0.16307
H         30.43893        62.47458        -0.04591
H         28.39241        61.27867        -0.04586
H         31.97096        52.50053         0.08349
H         30.84611        54.55955         0.36738
H         33.20979        62.43810         0.48633
H         34.45495        48.11966         0.81335
H         33.22747        50.03166         0.57836
H         35.46277        62.53668        -0.72899
H         36.76844        43.74994         0.48028
H         35.51460        45.97401         0.51137
H         37.91782        62.47398        -0.90567
H         39.21769        39.60586         0.07779
H         37.97790        41.67668         0.43535
H         40.30293        62.42294        -0.56407
H         41.66036        35.55867        -1.19440
H         40.43068        37.55175        -0.43596
H         42.70999        62.41953        -0.00054
H         45.02827        32.41532        -2.55810
H         42.89213        33.51171        -1.89328
H         45.05980        62.35223         0.65379
H         47.16185        33.69463        -2.56571
H         48.41924        35.74313        -2.05232
H         47.40039        62.41104         0.94944
H         49.72454        37.77981        -1.42592
H         50.91427        39.82097        -1.04973
H         49.99984        62.49820         0.90139
H         52.07200        41.80496        -1.14208
H         53.38036        44.30926        -0.89137
H         52.36351        62.55043         0.72243
H         54.68041        46.10214        -0.10483
H         55.87417        47.99003        -0.16046
H         54.63212        62.51735        -0.42173
H         57.00492        50.49964        -0.47031
H         58.31141        52.40829        -0.12167
H         56.90047        62.44940        -1.38905
H         59.54130        54.56355        -0.50557
H         60.46683        56.62590        -1.50035
H         59.12883        62.35838        -2.47019
H         61.34893        58.64856        -2.56678
H         61.14687        61.06209        -3.12365
