         314
 CSIRO Nanostructure Databank - Neutral Graphene Oxide Data Set
C         30.28713        57.16015        -0.93594
C         30.30359        58.55713        -0.56241
C         29.12005        59.30600        -0.75675
C         30.24747        61.40473        -0.32034
C         29.08336        60.69359        -0.58474
C         33.01669        52.97185        -1.02748
C         32.85335        54.33886        -0.65128
C         31.61299        54.95446        -0.95551
C         32.90927        57.26074         0.10811
C         31.20917        56.22466        -0.46842
C         32.78704        58.66305        -0.10650
C         31.50094        59.28631        -0.21686
C         32.70731        61.44828        -0.12817
C         31.48284        60.71708        -0.19422
C         35.61049        48.75911        -1.21224
C         35.52507        50.14306        -1.09799
C         34.30474        50.88002        -1.19289
C         35.33095        52.87947        -0.06767
C         34.19624        52.23686        -0.83798
C         35.28169        54.39260        -0.05750
C         34.04771        55.06814        -0.20920
C         35.31425        57.21753        -0.18215
C         34.08639        56.49983        -0.12412
C         35.26206        58.68999        -0.36458
C         33.98380        59.41101        -0.22093
C         35.21903        61.65230        -0.39535
C         33.95132        60.82665        -0.20976
C         37.97577        44.42426        -0.75261
C         37.98290        45.83220        -0.78595
C         36.83853        46.59464        -1.05414
C         37.98109        48.69664        -0.52111
C         36.83217        48.02521        -0.97416
C         38.02154        50.15915        -0.50421
C         36.77301        50.90648        -0.88361
C         37.90250        53.05080        -0.02771
C         36.68300        52.35997        -0.52983
C         37.70397        54.39082         0.60453
C         36.46486        55.11504         0.20328
C         37.80318        57.24621         0.14555
C         36.51385        56.52027         0.03313
C         37.80070        58.73882         0.00342
C         36.54305        59.49111        -0.28447
C         37.65202        61.62188         0.30462
C         36.50186        60.94592         0.00599
C         40.36506        40.13230        -0.70631
C         40.34829        41.51911        -0.46436
C         39.15452        42.27691        -0.60673
C         40.37856        44.35255        -0.09927
C         39.15397        43.67501        -0.49172
C         40.41551        45.76251        -0.01722
C         39.27328        46.51376        -0.54720
C         40.35253        48.61001         0.48114
C         39.27000        48.01509        -0.33762
C         40.13120        49.99067         0.99865
C         39.01309        50.80672         0.41461
C         40.19620        52.94201         0.89829
C         39.11649        52.29072         0.38701
C         40.27189        54.44686         0.72624
C         38.93375        55.12743         0.99825
C         40.11277        57.27860         1.03758
C         38.95856        56.59838         0.83592
C         40.14230        58.71896         0.67823
C         38.83562        59.48217         0.86371
C         40.13175        61.61702         0.54117
C         38.92855        60.95214         0.50942
C         42.88025        35.88712        -0.98043
C         42.83985        37.32230        -1.02057
C         41.61692        38.00535        -0.93711
C         42.81065        40.10126        -0.47342
C         41.57823        39.40560        -0.72405
C         42.76972        41.46006        -0.06912
C         41.56974        42.18644        -0.08643
C         42.73914        44.30979         0.52781
C         41.55956        43.61023         0.16323
C         42.74426        45.71217         0.70992
C         41.55416        46.45866         0.45236
C         42.47296        48.36175         1.83138
C         41.48213        47.88043         0.77298
C         42.50958        49.91348         2.02905
C         41.27602        50.71078         1.67470
C         42.53639        53.00146         2.00626
C         41.28277        52.23518         1.63272
C         42.60880        54.47782         1.68760
C         41.43840        55.13888         1.38636
C         42.64290        57.34890         1.28302
C         41.34530        56.63677         1.63317
C         42.66260        58.71836         0.97899
C         41.42199        59.45987         0.66986
C         42.61876        61.59909         0.60339
C         41.41076        60.94380         0.66053
C         45.36620        33.14080        -0.51137
C         44.14109        33.78779        -0.63003
C         45.34211        35.88474        -1.21236
C         44.07406        35.18307        -0.90510
C         45.32503        37.39194        -1.35134
C         44.06463        38.07763        -1.01292
C         45.31688        40.15977        -0.46918
C         44.05960        39.43006        -0.64903
C         45.29861        41.48139         0.04602
C         44.01191        42.08938         0.41252
C         45.25826        44.31450         0.75216
C         43.98787        43.56729         0.75653
C         45.20150        45.71642         1.06111
C         43.95730        46.36986         1.14380
C         45.16954        48.51265         1.92181
C         43.86503        47.71681         1.73125
C         45.10358        49.98274         2.01762
C         43.81939        50.66242         2.28077
C         45.09072        52.99478         2.33868
C         43.79447        52.21676         2.34891
C         45.09583        54.50357         2.10661
C         43.83788        55.24286         1.84244
C         45.12099        57.36325         1.31377
C         43.85583        56.61432         1.51508
C         45.08925        58.73152         0.74288
C         43.87356        59.45283         0.79435
C         45.09269        61.51298         0.32636
C         43.87238        60.87165         0.56433
C         46.58597        33.83479        -0.60339
C         47.80083        35.96833        -0.79019
C         46.62331        35.21207        -0.89599
C         47.83440        37.38314        -0.87878
C         46.63616        38.17748        -1.38189
C         47.75860        40.24388        -0.53012
C         46.55169        39.53474        -0.72296
C         47.71646        41.60706        -0.15547
C         46.49014        42.23392         0.17740
C         47.70837        44.38064         0.67453
C         46.46706        43.64583         0.54757
C         47.68650        45.76026         1.05384
C         46.44093        46.44093         1.24886
C         47.66891        48.50809         1.64843
C         46.43349        47.82240         1.54981
C         47.67093        49.95389         1.99897
C         46.37879        50.70484         2.19948
C         47.58648        52.91230         1.69252
C         46.40528        52.21830         2.21416
C         47.50854        54.29124         1.20327
C         46.40133        55.16748         1.68139
C         47.54868        57.14502         0.46834
C         46.42337        56.61510         1.27681
C         47.40582        58.51482        -0.17800
C         46.26833        59.35298         0.34574
C         47.54778        61.39686        -0.08642
C         46.30493        60.77392         0.16965
C         48.99792        38.08649        -0.60278
C         50.22325        40.18669        -0.32297
C         49.03340        39.52383        -0.55635
C         50.29458        41.64382        -0.30245
C         48.94365        42.40953        -0.19889
C         50.17686        44.42437         0.62162
C         48.94281        43.75649         0.38785
C         50.16064        45.74088         1.11426
C         48.92646        46.45116         1.25060
C         50.14195        48.59650         2.03849
C         48.90040        47.84561         1.55498
C         50.18750        50.03073         1.56719
C         48.86888        50.69937         1.48454
C         50.06267        52.94389         1.25249
C         48.77785        52.16770         1.26803
C         50.02488        54.29045         0.63231
C         48.68979        54.93514         0.51222
C         49.75160        56.97447        -0.65355
C         48.65260        56.39672         0.22247
C         49.94585        58.45708        -0.31154
C         48.72082        59.24645        -0.20029
C         50.02900        61.31359        -0.35399
C         48.76305        60.64758        -0.20084
C         51.47979        42.35401         0.15662
C         52.67537        44.41476         0.63734
C         51.44921        43.70974         0.45713
C         52.70641        45.76218         1.00433
C         51.44362        46.39945         1.44623
C         52.68573        48.63265         1.48015
C         51.46117        47.86346         1.80877
C         52.64603        50.02079         1.32447
C         51.36079        50.71022         1.38894
C         52.62513        52.92292         0.94456
C         51.36567        52.19902         1.33257
C         52.51296        54.34704         0.44214
C         51.15738        54.92138         0.20620
C         52.33449        56.86513        -0.95609
C         51.06488        56.17435        -0.59477
C         52.33884        58.31974        -1.24020
C         51.25310        59.16965        -0.68569
C         52.43259        61.45587        -0.68170
C         51.22330        60.67460        -0.67203
C         53.90041        46.49659         1.08178
C         55.10942        48.63039         1.10704
C         53.91214        47.90642         1.26151
C         55.09730        50.03398         0.97308
C         53.84845        50.75143         0.99772
C         55.02544        52.78556         0.19507
C         53.85197        52.12882         0.67898
C         54.91001        54.11964        -0.34618
C         53.69402        54.92070        -0.25734
C         54.77779        56.75802        -1.61826
C         53.63964        56.18327        -0.78787
C         54.80100        58.26109        -1.66558
C         53.49588        58.85272        -1.77604
C         54.95199        61.31485        -1.09416
C         53.60173        61.02415        -1.31579
C         56.29410        50.76602         0.81045
C         57.58456        52.77921         0.41946
C         56.30545        52.10826         0.40277
C         57.84717        53.86159        -0.41495
C         55.97236        54.72130        -1.04982
C         57.31021        56.81784        -1.34674
C         56.09008        56.11878        -1.28810
C         57.26839        58.26380        -1.53862
C         55.99674        58.99252        -1.62940
C         57.28057        61.11229        -1.57911
C         56.03829        60.46488        -1.49618
C         58.76840        54.92162        -0.35179
C         59.76849        56.96322        -1.09473
C         58.59164        56.19301        -0.98002
C         59.75152        58.31567        -1.46449
C         58.48295        58.98338        -1.58659
C         59.72214        61.10713        -1.85890
C         58.49807        60.41578        -1.71275
C         60.96021        59.04640        -1.62019
C         60.93824        60.41872        -1.84170
O         37.48083        53.16904        -1.43507
O         35.97483        59.16625        -1.58668
O         47.66443        54.25709        -0.30310
O         47.21397        50.20796         3.34733
O         41.46629        52.78983         2.97336
O         51.56714        56.02952        -1.97254
O         50.96352        58.69124         0.70235
O         41.50694        50.24562         3.02596
O         43.92133        42.53914         1.81070
O         38.08602        54.52501         2.01350
O         45.89231        52.69928         3.50744
O         43.72513        51.41074         3.54292
O         44.50871        47.79779         3.04518
O         46.03430        55.07512         3.07096
O         39.70678        47.42287        -1.61942
O         49.65743        42.30306        -1.46083
O         50.76161        52.81440         2.52577
O         56.98765        53.91291        -1.53769
O         45.25191        36.52918        -2.53986
O         46.07650        57.42976         2.44320
O         31.86955        56.61760         0.74400
O         52.85297        54.06268         1.84025
O         48.60236        51.23245         0.11825
O         53.39056        60.10528        -2.36499
O         40.79343        58.94930        -0.60101
O         51.61005        46.84185         2.85435
O         38.38029        59.38834         2.17820
O         38.25158        57.93315        -1.09513
O         37.84353        50.68779        -1.85829
O         38.87963        50.19082         1.74333
O         46.91969        38.46757        -2.78102
H         46.58907        37.69349        -3.29451
O         35.32476        61.95765        -1.80096
H         35.53884        61.11209        -2.25851
O         54.47222        56.33300        -3.00123
H         55.19751        56.65866        -3.57563
O         41.91057        47.80449         3.03735
H         42.54072        47.99459         3.76794
O         41.19966        56.78423         3.08062
H         41.92073        56.28243         3.51729
O         35.22068        52.41465         1.30920
H         34.35833        52.71196         1.66776
O         49.26545        56.92171        -2.01822
H         50.01366        56.57524        -2.57214
O         40.48308        54.68975        -0.70359
H         41.39776        54.43428        -0.94371
O         46.99233        58.26622        -1.56484
H         47.71178        57.74296        -2.00386
O         49.96859        48.71728         3.47737
H         50.34902        47.90094         3.87753
H         29.52728        56.84293        -1.66543
H         28.20049        58.77520        -1.04208
H         30.23137        62.50203        -0.26193
H         28.13168        61.22880        -0.70865
H         32.16285        52.47093        -1.50987
H         30.92182        54.40537        -1.61249
H         32.65673        62.54756        -0.09873
H         34.69814        48.18138        -1.42382
H         33.40733        50.35780        -1.56029
H         35.11843        62.62539         0.14716
H         37.04282        43.88581        -0.97678
H         35.89831        46.07698        -1.29554
H         37.62372        62.72257         0.36421
H         39.42229        39.61209        -0.93123
H         38.22582        41.75985        -0.89091
H         40.14892        62.71127         0.40733
H         41.92827        35.34673        -0.86660
H         40.67435        37.44334        -1.00934
H         42.64874        62.69626         0.52440
H         45.38486        32.06530        -0.28567
H         43.20642        33.22641        -0.48846
H         45.11547        62.60548         0.19803
H         47.52817        33.30494        -0.40214
H         48.73131        35.44675        -0.51427
H         47.59545        62.49361        -0.15978
H         49.92461        37.53555        -0.37722
H         51.14532        39.61256        -0.14668
H         50.03459        62.41186        -0.28500
H         52.43367        41.80873         0.21742
H         53.61926        43.89320         0.41967
H         52.44271        62.38548        -0.09259
H         54.85098        45.99022         0.85647
H         56.06063        48.08786         1.00556
H         55.21864        62.23930        -0.55890
H         57.25329        50.24478         0.94360
H         58.34217        52.42539         1.13433
H         57.30688        62.21080        -1.52303
H         59.68940        54.78417         0.23555
H         60.73481        56.48573        -0.87396
H         59.70783        62.20044        -1.97276
H         61.91777        58.51102        -1.54930
H         61.88070        60.97078        -1.96177
