         424
 CSIRO Nanostructure Databank - Neutral Graphene Oxide Data Set
C          1.42751         3.35162        -1.15514
C          0.22944         3.61358        -0.54411
C          1.18560         5.58717         0.49206
C          0.10766         4.73569         0.31676
C          1.12202         7.86810         0.93373
C         -0.07227         8.59581         0.95405
C          1.15439        10.58995         0.31856
C         -0.06492         9.93464         0.58644
C          1.17997        12.01605         0.07501
C         -0.00992        12.73325        -0.17200
C          1.19782        14.84882        -0.11937
C          0.00270        14.10960        -0.29099
C          1.17123        16.28736        -0.08230
C          0.01445        17.01798        -0.33891
C          1.15349        19.16626        -0.02702
C         -0.02104        18.41697        -0.24573
C          1.14181        20.61614        -0.07044
C         -0.04410        21.35814        -0.04610
C          1.12167        23.50865         0.07504
C         -0.04581        22.76813         0.09168
C          1.14863        24.94838         0.26503
C         -0.02347        25.71654         0.30211
C          1.16458        27.79654         0.78366
C          0.00594        27.12808         0.48982
C          1.24394        29.26271         1.16843
C         -0.02393        30.03825         0.94119
C          1.20944        32.05030         0.27158
C         -0.01525        31.34302         0.59011
C          1.23372        33.49451         0.15183
C          0.09652        34.28457         0.49335
C          1.36507        36.34792         0.21555
C          0.16491        35.66382         0.52671
C          1.44144        37.78109         0.27780
C          3.75804         3.87474        -1.59695
C          2.58062         4.19468        -0.95128
C          3.57996         6.26348         0.04927
C          2.45289         5.40283        -0.13412
C          3.57225         7.65675         0.35421
C          2.35460         8.43611         0.53657
C          3.62770        10.56491         0.28763
C          2.37797         9.85742         0.35907
C          3.64683        11.98975         0.21233
C          2.41986        12.72064         0.10644
C          3.67822        14.86114         0.17838
C          2.42612        14.14529         0.05460
C          3.68481        16.30733         0.22975
C          2.37273        17.00853         0.47213
C          3.60538        19.17975         0.17464
C          2.38907        18.47697         0.14292
C          3.58584        20.61748         0.12443
C          2.39934        21.31423        -0.01204
C          3.66941        23.49979         0.05245
C          2.39208        22.79523        -0.32172
C          3.63659        24.93803         0.25885
C          2.41008        25.61337         0.41136
C          3.68002        27.78343         0.62444
C          2.43572        27.01248         0.98554
C          3.64700        29.17878         0.37408
C          2.44364        29.91758         0.50350
C          3.60231        31.90769        -0.42295
C          2.39094        31.28542         0.14437
C          3.61244        33.41272        -0.60695
C          2.43148        34.17521        -0.18600
C          3.72951        36.27418        -0.52301
C          2.51508        35.59493        -0.15991
C          3.77889        37.72088        -0.45746
C          2.59905        38.43657        -0.02349
C          6.24637         3.85544        -1.35783
C          4.99386         4.69548        -1.39971
C          6.13943         6.33125         0.05493
C          4.89245         5.51154        -0.10692
C          6.05924         7.68503         0.32979
C          4.80997         8.39881         0.35010
C          6.10483        10.55641         0.33135
C          4.84311         9.82589         0.37493
C          6.11253        11.99917         0.30091
C          4.88941        12.71153         0.25307
C          6.14364        14.89893         0.59664
C          4.87814        14.14579         0.25412
C          6.15687        16.34027         0.12046
C          4.87262        17.04128         0.17049
C          6.08680        19.20956        -0.01606
C          4.86404        18.48154         0.13835
C          6.12157        20.59930         0.09983
C          4.85750        21.33219         0.49092
C          6.13589        23.46883         0.07958
C          4.84017        22.78943         0.11664
C          6.13335        24.95992         0.27556
C          4.85331        25.64828         0.46688
C          6.15966        27.75473         0.38504
C          4.88734        27.06267         0.56468
C          6.15317        29.12570         0.04162
C          4.89008        29.85472         0.01611
C          6.18760        31.94967        -0.35178
C          4.88307        31.19471        -0.30174
C          6.07430        33.37352        -0.85901
C          4.91979        34.10429        -0.72229
C          6.13904        36.23475        -1.05266
C          4.91860        35.55096        -0.82230
C          6.11950        37.70822        -1.36847
C          4.92627        38.40803        -0.79787
C          8.65492         3.68201        -0.89700
C          7.39370         4.33520        -0.74205
C          8.61429         6.23436         0.24621
C          7.38534         5.63811        -0.10154
C          8.59306         7.66080         0.62849
C          7.30208         8.42381         0.59021
C          8.58983        10.53410        -0.09562
C          7.31559         9.86730         0.34161
C          8.60338        12.00971         0.20770
C          7.37885        12.71681         0.31070
C          8.60626        14.81979         0.05076
C          7.40298        14.13491         0.28935
C          8.59198        16.24891        -0.45866
C          7.32284        17.00285        -0.13049
C          8.61976        19.19162        -0.09025
C          7.33155        18.48100        -0.47195
C          8.62496        20.58376         0.08856
C          7.37027        21.31949         0.13354
C          8.61403        23.46042         0.42070
C          7.38510        22.71168         0.26859
C          8.61046        24.83842         0.60991
C          7.34495        25.60366         0.89536
C          8.60586        27.72646         0.26679
C          7.38639        27.06089         0.48769
C          8.58265        29.07254        -0.20295
C          7.37113        29.74944        -0.34203
C          8.64685        31.86765        -0.83478
C          7.33195        31.12455        -0.98146
C          8.64253        33.30327        -1.13910
C          7.32389        34.06633        -1.21070
C          8.61266        36.20541        -1.09709
C          7.36237        35.53305        -1.13020
C          8.59773        37.65677        -0.97260
C          7.42218        38.36953        -1.03264
C         11.07395         3.54248        -0.87986
C          9.85944         4.22860        -0.45236
C         11.05309         6.27050         0.58123
C          9.85479         5.54068         0.17449
C         11.04457         7.68326         0.61648
C          9.84674         8.42276         0.46092
C         11.10298        10.51218         0.29122
C          9.85438         9.80450         0.29980
C         11.09409        11.94426        -0.19286
C          9.82023        12.70177         0.13071
C         11.07642        14.81458        -0.43636
C          9.81819        14.10639         0.01271
C         11.05598        16.30069        -0.13125
C          9.87240        17.01190        -0.17514
C         11.06714        19.19164        -0.07670
C          9.85276        18.47069        -0.09979
C         11.10737        20.61101         0.07980
C          9.86128        21.31551         0.21186
C         11.10174        23.44164         0.46030
C          9.86674        22.72395         0.38066
C         11.12144        24.85270         0.57759
C          9.86741        25.59532         0.92462
C         11.06953        27.69819         0.32515
C          9.86839        27.02882         0.44365
C         11.05181        29.20644         0.20562
C          9.88799        29.69968        -0.65739
C         11.08753        31.94854        -0.68745
C          9.84473        31.21656        -0.66311
C         11.09099        33.33876        -0.80627
C          9.87762        34.07180        -0.96754
C         11.09047        36.21952        -0.79695
C          9.85059        35.49254        -1.00528
C         11.03354        37.65286        -0.62982
C          9.84676        38.32965        -0.72614
C         13.60874         3.37479        -0.67559
C         12.27807         3.67769        -0.24244
C         13.56936         6.22791         0.61008
C         12.31025         5.61838         0.77045
C         13.60415         7.65760         0.95767
C         12.26346         8.43001         0.93770
C         13.53547        10.62190         1.00669
C         12.26598         9.87523         0.67715
C         13.52671        12.04175         0.50251
C         12.34328        12.70910         0.17015
C         13.52447        14.84107         0.22061
C         12.34128        14.11269         0.00651
C         13.50059        16.28277         0.20532
C         12.31508        16.97885         0.05527
C         13.62612        19.18673        -0.16905
C         12.33215        18.44300        -0.17457
C         13.66441        20.71219        -0.25102
C         12.33792        21.33974         0.13888
C         13.59142        23.45405         0.46618
C         12.34391        22.72764         0.34610
C         13.58200        24.87304         0.52334
C         12.33569        25.57747         0.52096
C         13.55416        27.72603         0.42353
C         12.32635        27.00830         0.45131
C         13.54972        29.16225         0.11789
C         12.37865        29.80917        -0.18624
C         13.61368        31.98266        -0.46052
C         12.38818        31.17937        -0.83272
C         13.61197        33.36701        -0.59345
C         12.37941        34.07252        -1.09995
C         13.54916        36.25102        -0.56750
C         12.32291        35.54369        -0.74767
C         13.55933        37.68017        -0.45246
C         12.27166        38.44284        -0.28435
C         15.98724         3.52197        -0.68571
C         14.72745         4.14412        -0.35069
C         15.94221         6.28813        -0.07725
C         14.75299         5.53495         0.13155
C         16.00478         7.70794         0.15609
C         14.92568         8.40569         0.95721
C         15.96893        10.57532         0.41222
C         14.79906         9.87635         0.63042
C         15.99654        12.02266         0.44239
C         14.76219        12.74452         0.48270
C         16.01765        14.86460         0.45700
C         14.76594        14.15970         0.39557
C         16.03820        16.28360         0.54258
C         14.74892        16.99478         0.56153
C         16.08785        19.18214         0.50437
C         14.79192        18.48753         0.44696
C         16.04150        20.61024         0.62221
C         14.86767        21.32856         0.43942
C         16.02297        23.49371         0.85230
C         14.82730        22.75974         0.60488
C         16.04265        24.89963         0.76405
C         14.80264        25.61209         0.61517
C         16.04125        27.80397         0.83900
C         14.77378        27.03266         0.56408
C         16.03585        29.20698         0.28534
C         14.83106        29.86713         0.03481
C         16.05385        32.00596        -0.14677
C         14.83034        31.28345        -0.19438
C         16.05009        33.42983        -0.27438
C         14.81644        34.11488        -0.45481
C         16.01933        36.26734        -0.43104
C         14.79667        35.54855        -0.51131
C         16.00850        37.70406        -0.44676
C         14.74792        38.37798        -0.43088
C         18.41836         3.53441        -1.05984
C         17.16672         4.20874        -0.75498
C         18.28559         6.37109        -0.91391
C         17.15945         5.65403        -0.58524
C         18.29828         7.87260        -0.89883
C         17.13478         8.45703        -0.15164
C         18.42202        10.55669         0.06617
C         17.19578         9.86426         0.12069
C         18.45943        11.97877         0.26766
C         17.22220        12.70929         0.38039
C         18.48393        14.84360         0.48266
C         17.24002        14.14078         0.45005
C         18.49381        16.27155         0.55578
C         17.25267        16.99779         0.59598
C         18.53697        19.15192         0.72055
C         17.26815        18.44587         0.65302
C         18.54831        20.56267         0.84953
C         17.25092        21.23973         1.27095
C         18.57491        23.49287         0.96666
C         17.26747        22.76404         1.18007
C         18.53291        24.92036         0.60608
C         17.30286        25.62738         0.67519
C         18.51684        27.73948         0.32496
C         17.30246        27.03474         0.53131
C         18.52142        29.17759         0.22721
C         17.27880        29.89809         0.18396
C         18.52718        32.02844        -0.04456
C         17.28896        31.30687        -0.01155
C         18.52419        33.45563        -0.14492
C         17.27850        34.15398        -0.24703
C         18.48999        36.30928        -0.31153
C         17.26371        35.57647        -0.33643
C         18.46060        37.74039        -0.37199
C         17.21413        38.41402        -0.42508
C         19.53195         4.22575        -1.36741
C         20.77054         6.35485        -0.97687
C         19.51324         5.72187        -1.51434
C         20.79573         7.63350        -0.51974
C         19.62382         8.46020        -0.43945
C         20.88917        10.54186         0.08177
C         19.66041         9.81784        -0.09644
C         20.90128        11.89776         0.26528
C         19.69054        12.66727         0.32368
C         20.92242        14.83722         0.46566
C         19.71160        14.10925         0.43632
C         20.93201        16.22128         0.52085
C         19.73540        16.97261         0.56175
C         20.96919        19.14933         0.59613
C         19.75414        18.42156         0.61937
C         20.97567        20.52743         0.63136
C         19.77168        21.27446         0.76136
C         20.95061        23.43816         0.35725
C         19.80273        22.71965         0.71719
C         20.94419        24.82412         0.21832
C         19.75025        25.58969         0.33334
C         20.95103        27.75383         0.03292
C         19.74793        27.02487         0.20614
C         20.95404        29.13150        -0.00308
C         19.74765        29.87478         0.09020
C         20.96360        32.06345         0.00952
C         19.75827        31.32223         0.02122
C         20.95974        33.44544        -0.06583
C         19.75252        34.17623        -0.14841
C         20.92602        36.38908        -0.21941
C         19.74102        35.62786        -0.22767
C         20.89059        37.78758        -0.28604
C         19.68043        38.46311        -0.35813
O          7.92359         8.00782         1.89764
O         17.98064        23.31022         2.34024
O          1.05193         6.57767         1.47326
O         14.50340        17.85933         1.74785
O          7.95561        33.55712        -2.45738
O          3.37317        32.51537        -1.75344
O         12.88567         7.97000         2.19949
O         12.25339         4.25590         1.04419
O          6.29337        24.41798        -1.06298
O         13.14735        18.65065        -1.44357
O          4.89784         4.52347         0.96842
H          4.93038         5.00548         1.82108
O          8.57681        16.09632        -1.93418
H          8.31541        16.98501        -2.29290
O          2.19526        16.95280         1.95656
H          1.33151        17.37673         2.15146
O         13.85431        21.06476        -1.65432
H         13.41611        20.34994        -2.17696
O         10.12398        29.26220        -2.01377
H          9.37342        29.56948        -2.56569
O          5.97782        37.79596        -2.85221
H          6.69288        37.24509        -3.23775
O          7.09670        30.93724        -2.39384
H          7.22264        31.82078        -2.82174
O          2.53676        26.79509         2.46599
H          1.79607        26.20090         2.71636
O         12.30681        39.67852        -1.01265
H         12.36844        39.46832        -1.96678
O          7.31235        18.53883        -1.95867
H          6.38530        18.38701        -2.24336
O         19.48932         5.99959        -2.96998
H         18.75072         5.47709        -3.34990
O         18.15090         8.30077        -2.30175
H         18.78763         7.75016        -2.82320
O         12.50473        33.99992        -2.57602
H         11.72881        34.46616        -2.95636
O         17.11242        20.91668         2.68954
H         17.62500        21.60357         3.17703
O          4.86885        21.35202         1.97135
H          4.86662        20.41800         2.27270
O         16.06366        27.99113         2.30968
H         16.16673        27.10226         2.71287
O          6.12184        15.00351         2.06851
H          5.26834        15.42075         2.31685
O          6.61067        32.11920         1.04611
H          5.86677        32.50986         1.55115
O          1.48525        29.30632         2.61497
H          2.07463        28.54116         2.83629
O         12.52187        30.96226        -2.27966
H         12.59351        31.85629        -2.69066
O          8.59473        10.46185        -1.57663
H          9.42572        10.92120        -1.86914
O         10.77803        29.72350         1.54804
H         11.41995        29.31571         2.16692
O          5.11505         5.62183        -2.52411
H          5.20089         5.09344        -3.34459
O          9.88477        25.70745         2.42894
H         10.11318        24.81682         2.77469
O         11.08719        11.85798        -1.66682
H         11.10929        12.79580        -1.99918
O         11.04449        14.69562        -1.90857
H         10.21880        15.16533        -2.20140
O          7.13984        25.55207         2.34008
H          7.99506        25.83614         2.74863
O         13.56327        10.72171         2.47064
H         13.67238         9.80021         2.81017
O         15.40774         8.37062         2.34992
H         15.21333         7.47962         2.71052
O          2.38934        22.85291        -1.80213
H          1.54483        22.45456        -2.10355
H          1.54400         2.46463        -1.79386
H         -0.63110         2.94655        -0.69065
H         -0.81978         4.91092         0.87635
H         -0.99993         8.10337         1.27212
H         -1.00985        10.49228         0.59257
H         -0.96665        12.20480        -0.27423
H         -0.94803        14.62809        -0.46931
H         -0.90669        16.50715        -0.65094
H         -0.97170        18.92804        -0.44628
H         -1.01427        20.84363        -0.02800
H         -1.01415        23.26099         0.26049
H         -1.00001        25.24071         0.14224
H         -0.94527        27.67339         0.40491
H         -0.97971        29.55713         1.19495
H         -0.97227        31.87907         0.51753
H         -0.85032        33.79702         0.76003
H         -0.72370        36.24795         0.80708
H          0.54596        38.34244         0.58237
H          3.77367         3.05251        -2.32992
H          2.64808        39.53390         0.03277
H          6.29242         2.92988        -1.95330
H          4.94088        39.50715        -0.74070
H          8.67838         2.72300        -1.43605
H          7.44776        39.46521        -0.93264
H         11.01902         2.95853        -1.81064
H          9.84144        39.42331        -0.60741
H         13.77179         2.48032        -1.29761
H         12.19552        38.73140         0.80359
H         15.98082         2.44244        -0.90037
H         14.72626        39.47647        -0.37885
H         18.43040         2.43420        -1.02890
H         17.19713        39.51393        -0.44069
H         20.47016         3.70097        -1.60242
H         21.69653         5.76154        -1.00177
H         21.75493         8.04584        -0.17175
H         21.84642        10.00618         0.02025
H         21.87147        12.40408         0.35763
H         21.88578        14.31156         0.43436
H         21.90412        16.73116         0.53387
H         21.93066        18.62406         0.52856
H         21.94121        21.04817         0.59331
H         21.89541        22.90923         0.17390
H         21.89046        25.32044        -0.03148
H         21.90848        27.22438        -0.05664
H         21.91284        29.65082        -0.12927
H         21.93081        31.54803         0.07511
H         21.92361        33.97155        -0.06217
H         21.90398        35.89345        -0.15817
H         21.83377        38.35171        -0.27689
H         19.65684        39.56121        -0.40459
