         429
 CSIRO Nanostructure Databank - Neutral Graphene Oxide Data Set
C          1.84635         1.84849        -2.32900
C          1.82538         3.26516        -2.50380
C          2.78183         1.24650        -1.54408
C          2.85999         4.07055        -2.01428
C          1.79321         6.22353        -2.66880
C          1.80669         7.65369        -2.76366
C          2.89453         5.51304        -2.26922
C          2.91370         8.40026        -2.42131
C          1.77794        10.64780        -2.96950
C          1.84736        12.00281        -3.08857
C          2.78352         9.88825        -2.14558
C          2.95652        12.76606        -2.57480
C          1.92882        14.97530        -3.27633
C          1.95749        16.32144        -3.45198
C          3.02428        14.20892        -2.68986
C          3.07950        17.14134        -2.96813
C          3.33901        18.51425        -3.45779
C          3.74499         2.07143        -0.73948
C          3.92202         3.46913        -1.27590
C          5.04920         1.37801        -0.49399
C          5.08173         4.20942        -0.90258
C          4.22045         6.22387        -2.18009
C          4.12248         7.72762        -2.01095
C          5.19354         5.58261        -1.22929
C          5.25702         8.42651        -1.62532
C          4.09369        10.62487        -2.10379
C          4.09457        12.00905        -2.12383
C          5.39317         9.86808        -2.06107
C          5.28156        12.71925        -1.59591
C          4.19486        14.89597        -2.35826
C          4.26207        16.36505        -2.43401
C          5.33649        14.21429        -1.72257
C          5.60464        17.00306        -2.55858
C          4.51574        19.15015        -3.22076
C          5.68196        18.47870        -2.66898
C          6.20408         2.08098        -0.24030
C          6.21559         3.53814        -0.31787
C          7.41700         1.40501         0.11619
C          7.35248         4.26138         0.07134
C          6.27724         6.33924        -0.73608
C          6.37338         7.75065        -1.00503
C          7.27548         5.70382         0.06665
C          7.56201         8.42847        -0.65139
C          6.53244        10.61482        -1.40920
C          6.53837        11.98342        -1.33906
C          7.73467         9.84012        -1.05718
C          7.69742        12.74019        -0.88145
C          6.65130        14.86647        -1.58540
C          6.80999        16.24562        -2.07134
C          7.73115        14.18863        -1.04969
C          7.99031        17.00818        -1.65420
C          6.87137        19.11121        -2.40590
C          8.03393        18.41807        -1.88005
C          8.58947         2.08804         0.41570
C          8.60661         3.55575         0.35835
C          9.80395         1.35493         0.60720
C          9.82712         4.19618         0.49321
C          8.21547         6.55314         0.72963
C          8.54250         7.82223         0.18054
C         10.22442         5.54406        -0.02945
C          9.79955         8.50330         0.54089
C          8.90037        10.60904        -0.45771
C          8.81365        12.07937        -0.39506
C          9.86019         9.89482         0.38445
C          9.97313        12.80960         0.08166
C          8.96051        14.90729        -0.74927
C          9.04555        16.33023        -1.01587
C         10.03507        14.24560        -0.15568
C         10.22786        17.04919        -0.67115
C          9.19647        19.11866        -1.53288
C         10.31067        18.45555        -0.95211
C         11.01626         1.98804         0.88895
C         10.96629         3.45354         1.08565
C         12.24977         1.33097         1.05791
C         12.21705         4.20364         1.41861
C         11.14552         6.37339         0.84378
C         10.96099         7.78507         1.01252
C         12.24840         5.68345         1.33092
C         12.13502         8.55664         1.50881
C         10.89779        10.70346         1.11489
C         11.01321        12.14184         0.68274
C         12.22894         9.98627         1.13835
C         12.24566        12.85158         1.17534
C         11.23604        14.96250         0.20293
C         11.32743        16.37367        -0.07263
C         12.32657        14.29821         0.77106
C         12.51034        17.08234         0.25233
C         11.50677        19.14507        -0.64774
C         12.60608        18.48255        -0.06649
C         13.46379         2.02942         1.29349
C         13.49155         3.46265         1.42872
C         14.69322         1.32866         1.32720
C         14.69972         4.15016         1.51903
C         13.42953         6.31543         2.04491
C         13.42479         7.84215         1.87651
C         14.72252         5.62411         1.63521
C         14.68919         8.56234         1.60704
C         13.43125        10.63475         1.10836
C         13.51874        12.10659         0.73880
C         14.67096         9.89623         1.26537
C         14.74231        12.82172         1.29445
C         13.54313        14.98127         1.06944
C         13.61676        16.41058         0.86686
C         14.70086        14.24085         1.42102
C         14.79233        17.12457         1.17368
C         13.83971        19.14835         0.15593
C         14.93221        18.48599         0.73086
C         15.92465         1.96604         1.54388
C         15.93367         3.41787         1.64276
C         17.12309         1.15846         1.40945
C         17.12707         4.18278         1.70566
C         15.88365         6.31936         1.51760
C         15.99140         7.80408         1.82894
C         17.14394         5.56501         1.10254
C         17.15744         8.40966         1.01148
C         15.92927        10.68342         1.15781
C         15.92237        12.12644         1.51657
C         17.21059         9.93986         1.13619
C         17.17359        12.81447         1.79826
C         15.88554        14.93844         1.94065
C         15.88631        16.47355         1.90655
C         17.17980        14.22184         2.00354
C         17.18181        17.23425         2.18821
C         16.19781        19.13815         0.84452
C         17.31505        18.51747         1.39611
C         18.34131         1.51818         1.96629
C         18.32386         3.64674         2.17696
C         19.67719         1.14047         1.65043
C         19.60220         4.18765         1.92502
C         18.43269         6.30667         1.40001
C         18.45574         7.70754         1.35975
C         19.63709         5.59354         1.64646
C         19.66277         8.39927         1.57787
C         18.36998        10.61759         1.79179
C         18.40071        12.10084         1.85786
C         19.64461         9.83947         1.90294
C         19.62020        12.76129         2.15187
C         18.40374        14.91582         2.21017
C         18.45158        16.38062         2.15551
C         19.61439        14.17430         2.32954
C         19.65047        17.05356         2.17018
C         18.56445        19.15350         1.41109
C         19.72303        18.48086         1.87206
C         20.80816         1.95140         1.88785
C         20.80488         3.41733         2.06217
C         22.07867         1.35006         1.63619
C         22.02753         4.11882         2.09851
C         20.87960         6.27166         1.72586
C         20.88639         7.69063         1.70503
C         22.09030         5.53351         1.94660
C         22.12201         8.38816         1.89309
C         20.89838        10.58249         1.94997
C         20.88745        12.01174         2.13915
C         22.09782         9.82551         1.94027
C         22.10504        12.69476         2.17901
C         20.88227        14.88138         2.65933
C         20.90411        16.41093         2.71952
C         22.18654        14.13463         2.46984
C         22.19106        17.04088         2.21972
C         20.95269        19.14357         1.88732
C         22.19390        18.44693         2.01851
C         23.29065         2.00808         1.83771
C         23.27747         3.37595         2.49621
C         24.50444         1.41094         1.46238
C         24.57238         4.14177         2.27484
C         23.33704         6.22444         1.98259
C         23.34673         7.65162         1.97376
C         24.59485         5.49761         2.10307
C         24.58433         8.35110         2.21358
C         23.32190        10.49632         2.17700
C         23.36095        11.95925         1.93725
C         24.41812         9.71629         2.54323
C         24.61887        12.73114         1.67464
C         23.43905        14.88714         2.16271
C         23.41032        16.32042         2.11624
C         24.61599        14.21243         1.81047
C         24.63506        17.03100         1.88694
C         23.41187        19.14607         1.83619
C         24.64125        18.47240         1.79504
C         25.74758         2.05781         1.58776
C         25.82633         3.31287         2.45019
C         26.87517         1.48218         1.00665
C         27.16174         4.08027         2.30804
C         25.91253         6.22474         1.82322
C         25.88805         7.72841         2.08593
C         27.15265         5.60973         2.49758
C         27.10538         8.40334         1.91153
C         26.19714        10.82796         2.14535
C         25.94212        12.04889         1.60415
C         27.13765         9.85955         1.57749
C         27.03477        12.70240         0.87009
C         25.82437        14.92296         1.55494
C         25.84309        16.31900         1.69864
C         27.02772        14.23866         1.00408
C         27.12267        17.06336         1.65662
C         25.86006        19.18246         1.57832
C         27.09614        18.52753         1.48099
C         28.14522         2.10577         0.98074
C         28.33995         3.40835         1.66061
C         29.18750         1.54863         0.25845
C         29.58445         4.16587         1.36630
C         28.41997         6.31197         1.96477
C         28.37701         7.67866         1.72427
C         29.71848         5.50937         2.07261
C         29.59173         8.43104         1.35775
C         28.34238        10.53256         0.96216
C         28.33918        12.01347         0.89245
C         29.60663         9.78055         1.02617
C         29.50901        12.72567         0.84387
C         28.33471        14.89488         1.01421
C         28.40687        16.34284         1.30402
C         29.50985        14.17599         0.83716
C         29.56251        17.10636         0.79266
C         28.32164        19.19042         1.28882
C         29.54929        18.53892         0.96649
C         30.43588         2.21955         0.10585
C         30.60903         3.54071         0.71058
C         31.44324         1.64525        -0.65228
C         31.96952         4.12943         0.63802
C         30.97506         6.29790         1.66182
C         30.91710         7.76622         1.39297
C         32.16578         5.56461         1.11719
C         32.10503         8.44543         0.79091
C         30.82760        10.52529         0.86257
C         30.78962        11.99862         0.97736
C         32.05936         9.87761         0.69561
C         32.06528        12.77827         0.78294
C         30.75277        14.89574         0.62965
C         30.69087        16.32232         0.40512
C         31.97035        14.22120         0.46419
C         31.85245        16.91160        -0.14201
C         30.73972        19.34846         0.97200
C         31.91004        19.00214         0.28608
C         32.66394         2.33200        -0.96891
C         32.95738         3.59646        -0.30199
C         33.52453         1.84626        -1.92175
C         34.18456         4.24033        -0.45599
C         33.29647         6.30448         0.53804
C         33.28140         7.75057         0.49861
C         34.35947         5.59217        -0.02789
C         34.46861         8.46362         0.03940
C         33.26952        10.61438         0.38615
C         33.28061        12.03957         0.39213
C         34.44365         9.90504         0.02244
C         34.44050        12.76490         0.07865
C         33.17684        14.91610         0.14924
C         33.13835        16.32491        -0.07796
C         34.41821        14.22312         0.02846
C         34.34035        17.10342        -0.19593
C         33.25545        19.34306         0.48353
C         34.36021        18.55618         0.00064
C         34.65067         2.71532        -2.39473
C         35.28520         3.48376        -1.18226
C         35.74471         1.99446        -3.09106
C         36.46052         4.32455        -1.65219
C         35.70988         6.27774        -0.04320
C         35.63204         7.77408        -0.32995
C         36.79502         5.55388        -0.86578
C         36.81346         8.49059        -0.74620
C         35.62250        10.62898        -0.33285
C         35.63305        12.05873        -0.26848
C         36.79916         9.93258        -0.72980
C         36.81893        12.78037        -0.55991
C         35.58484        14.96451        -0.21124
C         35.56797        16.38997        -0.28108
C         36.90937        14.23822        -0.17878
C         36.82733        17.10117        -0.44299
C         35.59234        19.21459        -0.09266
C         36.81747        18.55331        -0.39463
C         36.77438         2.86224        -3.73046
C         37.25636         3.90807        -2.69355
C         37.91145         2.10013        -4.35992
C         38.52120         4.53529        -3.02095
C         37.99336         6.34282        -1.29732
C         37.97596         7.82630        -1.20976
C         38.96051         5.70152        -2.24894
C         39.09873         8.56578        -1.70622
C         37.95992        10.67060        -1.09900
C         37.96220        12.10518        -1.00886
C         39.12060         9.99243        -1.57052
C         39.13601        12.85210        -1.40791
C         38.00700        14.97643        -0.90343
C         37.98927        16.41318        -0.79553
C         39.09394        14.30212        -1.42082
C         39.26656        17.12016        -0.97760
C         37.95239        19.30373        -0.69307
C         39.25210        18.68499        -0.89617
C         39.09647         2.70356        -4.56453
C         39.36857         4.01660        -3.99633
C         40.48366         4.79144        -4.48099
C         40.14093         6.50108        -2.75256
C         40.20300         7.93520        -2.36373
C         40.77855         6.02619        -3.98938
C         41.32889         8.68185        -2.71157
C         40.29045        10.73718        -1.93063
C         40.29379        12.17694        -1.80541
C         41.39613        10.05287        -2.46371
C         41.50009        12.94920        -2.05876
C         40.16993        15.04776        -2.19259
C         40.32949        16.50000        -1.77410
C         41.47412        14.29191        -2.17823
C         41.36089        17.26540        -2.24472
C         40.32668        19.38942        -1.59810
C         41.36480        18.70095        -2.14455
O         25.44662        10.37474         3.22805
O         28.13941         3.38976         3.14094
O         18.25695         2.50313         2.97536
O          6.47213        16.33240        -3.53006
O         11.24843         3.80752         2.49706
O         31.70889        18.11445        -0.81024
O         23.80936        12.26990         0.51328
O         21.60557        14.36219         3.82888
O         16.74447        10.55902        -0.11036
O         26.73175        13.53447        -0.26567
O          3.34220        17.03157        -1.51389
O         27.28318         9.98798         0.10734
O         31.58202        12.46413         2.13863
O         38.02671         5.52804        -0.05710
O         18.73374        10.04882         3.08637
O         40.28912         5.55803        -1.63627
O          8.91509        10.11320        -1.87409
O          4.91939        13.56255        -0.44374
O         39.70840        17.83569         0.20938
O         15.49875        15.74774         3.11952
O         10.00504         5.86413        -1.18982
O         32.55393         4.43671         1.95200
O         31.31171         7.23216         2.73964
O         12.55878         8.41051         2.92415
O         28.05853        16.64663         2.71562
O         16.88116         8.09013        -0.37637
H         16.70557         8.94913        -0.83878
O          5.81068         9.77287        -3.48043
H          6.70783         9.37302        -3.49552
O         34.05999         3.76397        -3.23124
H         33.35698         3.34773        -3.77315
O         27.09387         5.86925         3.90814
H         27.89958         5.44945         4.29209
O         36.10907         6.21778         1.35828
H         37.09552         6.14644         1.36685
O         10.46032        10.73335         2.51636
H         11.14313        11.25866         3.00199
O         23.13815         3.15771         3.93366
H         24.03001         2.88988         4.26649
O         35.80260         2.48113        -0.28499
H         36.07811         2.92290         0.54568
O         13.59433        12.19579        -0.70442
H         14.43027        11.77209        -0.99299
O         17.08813        17.69639         3.56703
H         16.67340        16.96490         4.08032
O         36.20875         3.67225        -4.79911
H         35.35764         4.03441        -4.44655
O          4.83853         6.05600        -3.51945
H          4.28552         6.55903        -4.15505
O          2.26418         9.93241        -0.75336
H          2.19176        10.87889        -0.50235
O          3.10740         2.24137         0.60153
H          2.21805         2.62568         0.44429
O         26.14747         6.05394         0.39145
H         25.47585         6.57929        -0.09247
O         20.85990        16.77776         4.13630
H         21.32972        16.05938         4.62272
O         25.79020         2.82119         3.82519
H         26.72757         2.62234         4.06762
O         37.30164        14.23782         1.24224
H         38.18695        13.82033         1.30528
O         13.29299         6.03217         3.46070
H         12.59881         6.64361         3.80066
O         12.24787        12.80094         2.64144
H         11.68481        13.53254         2.97179
O         16.32764         7.93812         3.22813
H         15.61725         7.51620         3.75742
O         29.86732         5.23306         3.49350
H         30.43474         5.95269         3.85753
O         17.08345         5.37806        -0.34511
H         17.03743         6.28439        -0.73842
O          8.75621         6.19059         1.91599
H          8.46433         5.29286         2.17649
O         39.72069        15.09168        -3.59052
H         39.63823        14.16404        -3.89782
H          1.09320         1.24405        -2.85539
H          1.02588         3.70565        -3.11435
H          2.77976         0.15613        -1.40141
H          0.82940         5.71587        -2.82044
H          0.85817         8.15210        -3.00596
H          0.90044        10.12026        -3.37026
H          1.03868        12.52200        -3.62198
H          1.04858        14.42885        -3.64188
H          1.13711        16.82081        -3.98952
H          2.51931        19.04707        -3.96311
H          5.05023         0.28043        -0.41192
H          4.63337        20.20242        -3.52162
H          7.42036         0.30460         0.12220
H          6.94601        20.20109        -2.54239
H          9.77160         0.25950         0.50699
H          9.25195        20.20302        -1.71006
H         12.28682         0.23540         0.95950
H         11.58905        20.21514        -0.88917
H         14.67791         0.23740         1.18667
H         13.94426        20.20192        -0.14176
H         17.05623         0.25598         0.78286
H         16.30462        20.14736         0.41836
H         19.84957         0.15958         1.17939
H         18.66186        20.16878         0.99729
H         22.09704         0.31840         1.25005
H         20.97931        20.22093         1.66502
H         24.47749         0.41652         0.98769
H         23.38667        20.23757         1.70199
H         26.75447         0.53871         0.45162
H         25.82090        20.27791         1.48382
H         29.04234         0.57996        -0.24203
H         28.32455        20.29040         1.31802
H         31.26873         0.66158        -1.11250
H         30.73600        20.24434         1.61006
H         33.32462         0.88617        -2.41937
H         33.50020        20.25031         1.05605
H         36.09620         1.07028        -2.60339
H         35.61876        20.30452         0.05478
H         37.70950         1.09790        -4.76463
H         37.85523        20.39045        -0.83788
H         39.90258         2.20306        -5.12163
H         41.02623         4.41055        -5.35895
H         41.51737         6.66246        -4.49744
H         42.18458         8.18294        -3.18674
H         42.30740        10.59539        -2.74535
H         42.46431        12.42483        -2.11510
H         42.41057        14.84008        -2.35452
H         42.15869        16.80299        -2.84337
H         40.26323        20.48305        -1.69754
H         42.17975        19.24667        -2.64114
