         261
 CSIRO Nanostructure Databank - Neutral Graphene Oxide Data Set
C        -11.14512         0.77101         0.94455
C        -10.19982         1.47542         0.04794
C         -9.02412         0.69309        -0.47531
C         -7.75885         1.41042        -0.87544
C         -6.42054         0.70526        -0.90140
C         -5.12430         1.46893        -1.16078
C         -3.79064         0.93430        -0.64039
C         -2.56568         1.48557        -1.40933
C         -1.28181         0.74877        -1.23146
C          0.04051         1.49332        -1.24092
C          1.23991         0.69239        -0.78485
C          2.50525         1.39673        -0.47175
C          3.80833         0.74058        -0.79197
C          5.06538         1.43628        -0.37308
C          6.25944         0.59440        -0.06764
C          7.47533         1.27542         0.45277
C          8.79065         0.55819         0.49212
C         10.06634         1.31795         0.73677
C         11.33152         0.55450         0.51920
C        -10.13355         2.94875         0.08327
C         -9.07748         3.62581        -0.47980
C         -7.80700         2.93108        -0.90224
C         -6.15182         3.98111        -2.01011
C         -5.07383         2.91247        -1.61006
C         -3.78999         3.67863        -1.37503
C         -2.48867         3.00293        -1.63627
C         -1.15234         3.83304        -1.56446
C          0.08382         2.98882        -1.23211
C          1.24188         3.68452        -0.57072
C          2.46638         2.88918        -0.24081
C          3.78960         3.56267        -0.04753
C          4.95738         2.73948         0.38034
C          6.18379         3.40140         0.92560
C          7.50422         2.81805         0.30918
C          8.79082         3.50531         0.74363
C          9.99021         2.79427         0.77554
C         -8.94527         5.04206        -0.51721
C         -7.68059         5.65787        -0.72024
C         -6.43627         4.77200        -0.72340
C         -5.21225         5.48004        -0.07073
C         -3.84725         4.81614        -0.39288
C         -2.57211         5.52879        -0.02943
C         -1.28624         5.16278        -0.73895
C         -0.03463         5.90150        -0.35508
C          1.28941         5.19342        -0.56752
C          2.53533         5.80698        -0.01585
C          3.82364         5.02697         0.16158
C          4.90827         5.63748         1.00950
C          6.25318         4.91784         1.36000
C          7.48850         5.65793         0.78983
C          8.72015         4.92839         0.73193
C         -7.59264         7.04045        -0.75037
C         -6.31362         7.74607        -0.84710
C         -5.07100         6.94374        -0.54568
C         -3.89477         7.71591         0.00702
C         -2.65448         6.97840         0.42389
C         -1.37780         7.76402         0.69453
C         -0.08897         6.94857         0.75997
C          1.18916         7.83962         0.83972
C          2.49289         7.14620         0.63722
C          3.78608         7.88748         0.47611
C          4.92484         7.12651         1.10389
C          6.25847         7.80229         1.41122
C          7.42326         7.04516         0.76781
C         -6.24875         9.21218        -0.62858
C         -5.09270         9.86646        -0.42105
C         -3.75953         9.15429        -0.47965
C         -2.59624         9.92516         0.08272
C         -1.37410         9.27635         0.54695
C         -0.08345        10.08475         0.41525
C          1.21850         9.32488         0.64132
C          2.40013        10.00279         0.57389
C          3.75354         9.36450         0.53201
C          5.04071        10.00210         0.92871
C          6.16736         9.30305         1.18356
C        -11.10913        -0.55712         1.11365
C        -10.17331        -1.48399         0.37301
C         -8.93401        -0.78550        -0.21386
C         -7.59167        -1.44920        -0.07573
C         -6.35169        -0.57773        -0.08867
C         -5.04944        -1.11160         0.46077
C         -3.72920        -0.36976         0.14449
C         -2.42126        -1.15547         0.19591
C         -1.14603        -0.45262        -0.29534
C         -0.09349        -1.39689        -0.95590
C          1.20793        -0.72644        -1.27908
C          2.50429        -1.48060        -1.38892
C          3.78475        -0.75149        -1.07885
C          4.96675        -1.55159        -0.59215
C          6.28259        -0.81488        -0.56786
C          7.57978        -1.53388        -0.48214
C          8.85420        -0.76435        -0.22221
C         10.14674        -1.50555        -0.25909
C         11.34973        -0.76692         0.23016
C         -9.67602        -2.60879         1.29651
C         -8.77067        -3.59629         0.60731
C         -7.61575        -2.66367         0.84877
C         -6.30641        -3.32084         1.23462
C         -4.99473        -2.54082         1.02886
C         -3.67712        -3.29288         1.01268
C         -2.40397        -2.63613         0.46860
C         -1.34535        -3.52352        -0.17248
C         -0.14345        -2.90942        -0.88767
C          1.12005        -3.71771        -1.18812
C          2.46402        -3.01601        -1.42196
C          3.77377        -3.76421        -1.30487
C          4.99685        -3.03520        -0.75465
C          6.35917        -3.71570        -0.76865
C          7.54260        -3.00993        -0.07774
C          8.89560        -3.69449        -0.30869
C         10.06044        -2.99825        -0.31932
C         -8.77063        -4.93223         0.74013
C         -7.55139        -5.76382         1.08291
C         -6.28396        -4.84457         1.36743
C         -4.91933        -5.51650         1.56056
C         -3.63167        -4.77675         1.32253
C         -2.33096        -5.56771         1.12467
C         -1.26953        -4.97041         0.23575
C         -0.02896        -5.80514        -0.08430
C          1.14693        -5.20368        -0.82666
C          2.46586        -5.97087        -0.87046
C          3.78328        -5.26179        -1.11566
C          5.08281        -5.95843        -0.83644
C          6.39668        -5.20571        -0.80500
C          7.61706        -5.95769        -0.37912
C          8.85966        -5.17587         0.04728
C         -7.39763        -6.95501         0.13071
C         -6.65435        -8.01444         0.53908
C         -4.85699        -6.99092         1.29659
C         -3.64223        -7.76842         0.95292
C         -2.34116        -7.07244         1.14459
C         -1.10642        -7.89047         0.94127
C          0.14349        -7.13323         0.62440
C          1.36325        -7.96187         0.39425
C          2.53142        -7.35828        -0.32533
C          3.82698        -7.99357         0.09401
C          5.14481        -7.23637        -0.01460
C          6.31323        -8.09044        -0.60073
C          7.58803        -7.30852        -0.31035
C         -6.21603        -9.27681        -0.05499
C         -4.96943        -9.81348         0.11960
C         -3.71416        -9.23313         0.63443
C         -2.55303        -9.94385         0.48141
C         -1.19809        -9.37822         0.72603
C          0.04408       -10.06664         0.27795
C          1.25200        -9.44609         0.25341
C          2.51236       -10.19482        -0.19697
C          3.80955        -9.48038         0.20500
C          5.13575       -10.16662         0.17909
C          6.28128        -9.51188        -0.07398
O         -5.93035        -0.28474         1.27844
O         -4.15466        -5.02977         2.66875
O         -0.77997         6.29209        -1.52850
O          5.35251         2.63961         1.77860
O         -2.04101         0.61158        -2.44662
O         -4.47242        -7.11285        -0.11233
O          4.24233         4.46488        -1.11030
O          3.21281        -3.44439        -2.59929
O          6.64440        -4.39377        -2.01071
O          3.37145        -0.98499        -2.44891
O         -3.21032         3.71938        -2.71341
O          0.11914        -5.95618        -1.52188
O          6.55538         0.66721         1.37516
O         -1.99492        -1.70884         1.49977
O         -4.14163        -2.56553         2.18673
O         -1.49676         8.60413         1.86967
O          0.42374         2.21841        -2.42865
O          9.64434        -0.77259        -1.44803
O         -2.04634        -6.26665         2.35087
O         -4.92788         1.83200        -2.56151
O         -6.81914         3.54105         0.02968
O          1.97507         7.34380         1.97784
O          2.18706         5.89663        -1.44568
O          4.39101         6.30981         2.18513
O         -0.99767        -8.80695         2.06939
O         -7.24479         0.74680        -2.07797
O          2.34768        -7.15925        -1.74474
O          1.49129         3.22128         0.79684
O         -3.09885         4.49094         0.83686
O          4.62318         1.48700        -1.74682
O          4.51838        -5.99007        -2.16439
O         -8.33400        -1.56213        -1.31372
O         -3.67275         7.36132         1.39099
O         -6.49023        -3.97377         2.51620
O         -1.97502        -4.54839        -0.98474
O        -10.14885         0.99126        -1.35624
O         -7.42189         3.34389        -2.22870
O          7.37692        -3.07785         1.31166
O          0.23031        -0.95564        -2.31150
O          9.31711         0.62251         1.83529
O         -3.63705         0.93212         0.79878
O          4.68174        -2.41821         0.54350
O         -8.45524        -2.13751         2.00957
O          3.66885        -8.63982         1.40182
O         -5.41193         7.20967        -1.90961
O         -5.93985        -7.76704         1.73365
O          7.41348         3.10255        -1.02951
O          3.97131         8.60483        -0.75716
O          6.44134         4.96731         2.71099
O          1.14437        -7.26858         1.67109
O          1.75365         0.72108         0.58174
O          7.04178        -1.13969        -1.77137
O          0.11258        -3.46932        -2.19774
O         -0.18295         6.16948         1.95928
H         -0.15560         6.77481         2.73126
O         -7.89544        -6.29771         2.37857
H         -7.78638        -5.57308         3.03356
O          6.14770        -8.23639        -2.02633
H          6.13671        -7.35149        -2.45127
O        -10.92297        -2.08290        -0.70149
H        -10.32049        -2.16777        -1.47331
O         -0.08747        10.63086        -0.90948
H          0.81121        10.95156        -1.12994
O          6.57079         7.63881         2.81496
H          6.41297         6.66924         3.04024
O         -5.75183         4.70201        -3.12015
H         -5.53084         4.07981        -3.84395
O          5.49553        -6.80599         1.31310
H          5.14755        -7.48203         1.94082
O         -0.59680         0.16974         0.87614
H         -0.78290        -0.38384         1.66830
O         -0.84586         4.25712        -2.89386
H         -1.65558         4.62966        -3.30626
O          8.89511        -5.18865         1.47993
H          8.24656        -4.48153         1.77786
O         -5.44741         5.46966         1.33197
H         -4.60552         5.23424         1.78830
O         -3.38084         9.01130        -1.88908
H         -3.47101         9.88180        -2.33089
O          2.48533       -10.33577        -1.62304
H          2.50775        -9.44488        -2.03557
H         12.31478        -1.29615         0.20338
H         12.27566         1.07066         0.75196
H         10.94117         3.35334         0.77725
H          9.65964         5.49823         0.84619
H          8.31248         7.61857         0.45269
H          7.08419         9.86736         1.41624
H          5.09007        11.10269         0.91179
H          2.36518        11.10001         0.45608
H         -0.13386        10.93343         1.16189
H         -2.47785        10.94545        -0.31926
H         -5.09832        10.95363        -0.25035
H         -7.20387         9.75869        -0.59694
H         -8.51305         7.63727        -0.65714
H         -9.82540         5.67988        -0.34383
H        -10.97789         3.50198         0.52205
H        -11.87125         1.38407         1.49911
H        -11.83651        -1.03760         1.78570
H        -10.45345        -3.01097         1.98493
H         -9.73351        -5.44756         0.88534
H         -7.96810        -6.96575        -0.80756
H         -6.94346        -9.86233        -0.63952
H         -4.81910       -10.81340        -0.32252
H         -2.60673       -10.98124         0.11535
H         -0.01885       -11.14159         0.04683
H          2.50112       -11.22802         0.23231
H          5.15850       -11.22962         0.46675
H          7.23598       -10.05973        -0.03596
H          8.49602        -7.85967        -0.01831
H          9.78261        -5.69062        -0.32697
H         11.01387        -3.55235        -0.32129
