         598
 CSIRO Nanostructure Databank - Neutral Graphene Oxide Data Set
C         22.94795        69.73348        -1.01377
C         22.85990        71.09458        -1.30574
C         21.90446        72.02294        -0.83180
C         23.30610        74.11953        -0.91505
C         22.10202        73.41764        -0.84139
C         25.80270        65.65097        -1.21554
C         25.79563        67.13537        -1.41763
C         24.46893        67.70947        -0.94445
C         26.07223        70.11658        -1.43976
C         24.09792        68.94618        -1.37753
C         26.04180        71.52003        -1.23487
C         24.83428        72.24058        -1.45945
C         25.75792        74.23213        -0.43366
C         24.62119        73.54282        -0.94574
C         27.92042        61.35004        -0.39962
C         27.90092        62.73370        -0.23188
C         26.83085        63.51455        -0.69748
C         28.01353        65.65680        -0.12771
C         26.85180        64.94461        -0.67850
C         28.04174        67.12668        -0.19352
C         27.00093        67.85270        -0.79845
C         28.18214        69.97929        -0.24157
C         27.06945        69.29044        -0.84281
C         28.17892        71.39657        -0.06957
C         27.09023        72.15922        -0.49664
C         28.11707        74.24759         0.32456
C         26.97598        73.57676        -0.20362
C         30.31726        56.96544         0.29607
C         30.30271        58.40423         0.27182
C         29.13643        59.11039         0.02614
C         30.39535        61.32287         0.16094
C         29.13998        60.56393        -0.18949
C         30.32729        62.76367         0.48029
C         28.97030        63.42153         0.59244
C         30.18723        65.58574         1.07106
C         29.04690        64.92239         0.39782
C         30.27986        67.07883         0.98276
C         29.19949        67.82782         0.29647
C         30.60709        69.93040         0.42884
C         29.28669        69.21586         0.23812
C         30.50942        71.35460         0.91806
C         29.16758        72.03931         0.87691
C         30.44942        74.19397         1.08496
C         29.25733        73.54278         0.72628
C         32.77657        52.67795         0.38783
C         32.75782        54.09604         0.50252
C         31.54868        54.81743         0.47682
C         32.73670        56.98487         0.75764
C         31.48577        56.23863         0.50205
C         32.74121        58.45539         0.63599
C         31.56497        59.12155         0.49684
C         32.80754        61.32800         0.72765
C         31.50298        60.58080         0.87295
C         32.77176        62.73552         0.80852
C         31.48499        63.39749         0.86730
C         32.75050        65.51243         1.52650
C         31.44390        64.79697         1.33261
C         32.75123        66.98919         1.51215
C         31.59046        67.73675         1.21552
C         32.75039        69.79919         1.74347
C         31.65660        69.14297         1.15767
C         32.83300        71.28579         1.81907
C         31.61920        72.02001         1.36448
C         32.87534        74.15071         1.38310
C         31.64030        73.48345         1.38412
C         35.25873        48.43715         0.06254
C         35.22707        49.83715         0.07103
C         34.00380        50.55149         0.21093
C         35.28669        52.65597         0.58446
C         33.97504        51.94683         0.33303
C         35.22794        54.13617         0.31651
C         34.03379        54.79851         0.48358
C         35.26717        57.02789         0.37459
C         34.04516        56.25696         0.70814
C         35.23755        58.40883         0.39050
C         34.04735        59.16277         0.95467
C         35.21611        61.39736         0.44689
C         34.02383        60.64645         0.63893
C         35.24290        62.79078         0.61662
C         34.00753        63.47156         0.92612
C         35.33230        65.45016         1.74191
C         34.03028        64.82303         1.27886
C         35.29550        66.99569         1.71078
C         33.94012        67.63948         1.90318
C         35.69032        70.06303         2.28310
C         33.77367        68.98593         2.25715
C         35.50542        71.39285         1.79416
C         34.17628        72.06166         1.86095
C         35.27486        74.10715         0.92768
C         34.12427        73.47138         1.38702
C         37.65941        44.14783        -0.14487
C         37.60723        45.53239        -0.36059
C         36.46845        46.30116        -0.05795
C         37.66811        48.43628        -0.47564
C         36.45678        47.71309        -0.16463
C         37.66056        49.85498        -0.47176
C         36.46523        50.57319        -0.13471
C         37.68035        52.70728        -0.23379
C         36.48450        51.96676        -0.01426
C         37.68382        54.13674        -0.12286
C         36.46106        54.86764         0.09899
C         37.69439        56.99547        -0.27622
C         36.44746        56.26946         0.04185
C         37.67799        58.48892        -0.37356
C         36.36931        59.18783        -0.16250
C         37.65706        61.44364        -0.35910
C         36.38113        60.68152        -0.11159
C         37.66249        62.94582        -0.14623
C         36.46683        63.57351         0.50144
C         37.81378        65.56834         1.11504
C         36.53976        64.85794         1.01427
C         37.86683        66.84767         1.74143
C         36.63538        67.72547         1.80529
C         37.93589        69.97452         1.56413
C         36.75957        69.23330         1.97703
C         37.85825        71.36012         1.14541
C         36.60020        72.03930         1.19845
C         37.69236        74.09298         0.40006
C         36.53183        73.43518         0.80844
C         40.02362        39.86501         0.63520
C         40.12166        41.30470         0.14272
C         38.89088        42.02345         0.03330
C         40.04065        43.99366        -0.92356
C         38.83152        43.36708        -0.34708
C         40.06096        45.47103        -1.17561
C         38.78203        46.24487        -0.92135
C         40.08004        48.34559        -1.04936
C         38.87048        47.70702        -0.76992
C         40.06360        49.82879        -1.17801
C         38.85502        50.59213        -0.76341
C         40.11996        52.75775        -0.77098
C         38.86491        51.98422        -0.62090
C         40.19048        54.11837        -0.14277
C         38.91995        54.88108        -0.14433
C         40.20960        57.02590         0.09199
C         38.95588        56.25659        -0.10301
C         40.17683        58.53767         0.03967
C         38.92109        59.29223        -0.21251
C         40.20847        61.40037        -0.38518
C         38.92371        60.65531        -0.31572
C         40.23497        62.91374        -0.27424
C         38.96079        63.77771        -0.22963
C         40.29291        65.60738         0.84986
C         39.03422        64.95163         0.72536
C         40.35584        66.89248         1.45790
C         39.15317        67.34645         2.01975
C         40.42886        70.13653         1.58710
C         39.17649        69.52484         1.96521
C         40.32219        71.43079         0.89622
C         39.03878        72.05748         0.80642
C         40.14556        74.10971         0.05247
C         38.96787        73.44382         0.39781
C         42.62937        35.68406         1.46122
C         42.64158        37.03076         1.16519
C         41.38797        37.78672         1.07085
C         42.60774        39.80496         0.44818
C         41.33324        39.09701         0.71582
C         42.61523        41.24759         0.09882
C         41.32627        41.95204        -0.07469
C         42.60020        44.09307        -0.71557
C         41.36778        43.28345        -0.70978
C         42.60125        45.47371        -1.04018
C         41.34103        46.20647        -1.18234
C         42.58480        48.32875        -1.48327
C         41.30386        47.59946        -1.25685
C         42.62060        49.75319        -1.01947
C         41.38310        50.56128        -1.25069
C         42.69066        52.71204        -0.59236
C         41.41288        52.04197        -0.99829
C         42.72158        54.19880        -0.66834
C         41.49468        54.86770        -0.20462
C         42.69390        57.01851        -0.28111
C         41.50359        56.33754        -0.15836
C         42.70974        58.48234        -0.02254
C         41.45556        59.26059        -0.11858
C         42.71159        61.37305        -0.24807
C         41.46741        60.63228        -0.19487
C         42.69603        62.79488        -0.04058
C         41.52204        63.55079         0.11816
C         42.76672        65.63607         0.67196
C         41.53879        64.92012         0.53315
C         42.83032        67.02489         0.90871
C         41.68120        67.68232         1.66315
C         42.78727        69.91786         0.70595
C         41.67663        69.24699         1.42590
C         42.71719        71.30535         0.38215
C         41.48119        72.04934         0.43416
C         42.57161        74.12200        -0.34065
C         41.41915        73.44671         0.01998
C         45.15688        32.98868         2.35051
C         43.93980        33.58077         2.09639
C         45.20648        35.66388         1.31717
C         43.86161        34.89044         1.44896
C         45.13628        37.12982         1.27703
C         43.90130        37.74626         1.10421
C         45.11982        40.00509         1.02127
C         43.83704        39.21617         1.05673
C         45.13719        41.38673         0.50648
C         43.84016        42.07094         0.35056
C         45.14493        44.07403        -0.50841
C         43.83672        43.49365        -0.17265
C         45.10758        45.40036        -1.16428
C         43.84592        46.14885        -1.15806
C         45.19893        48.32616        -1.24128
C         43.90546        47.58827        -1.45734
C         45.20194        49.72734        -1.04446
C         43.93227        50.42995        -0.77217
C         45.17587        52.64756        -1.11431
C         43.95663        51.93226        -0.63336
C         45.13787        54.17144        -1.20518
C         43.90112        54.89766        -0.79382
C         45.17330        57.02134        -0.68366
C         43.94653        56.33333        -0.57316
C         45.22405        58.47854        -0.63752
C         44.00400        59.22889        -0.23923
C         45.14603        61.41864        -0.65008
C         43.93136        60.68997        -0.40413
C         45.19645        62.76183        -0.33166
C         44.00022        63.41702         0.23787
C         45.32683        65.64308         0.50680
C         44.03638        64.88193         0.61078
C         45.26749        67.10760         0.35527
C         44.04018        67.76507         0.63109
C         45.18437        69.92153         0.16594
C         43.99739        69.20153         0.50314
C         45.12154        71.34619         0.00680
C         43.89945        72.00026        -0.02274
C         45.09936        74.20840        -0.41920
C         43.84545        73.39016        -0.63148
C         46.38891        33.66748         2.18713
C         47.61389        35.79150         1.86390
C         46.43909        35.02218         1.80932
C         47.61874        37.18295         1.55210
C         46.37072        37.87699         1.33202
C         47.60046        39.98903         0.97005
C         46.38809        39.26700         1.09968
C         47.60358        41.38911         0.63706
C         46.33122        42.07008         0.35747
C         47.60105        44.17659        -0.20114
C         46.31652        43.42714        -0.16826
C         47.70612        45.41914        -1.03986
C         46.42650        46.15071        -1.38957
C         47.68922        48.35538        -1.36454
C         46.41005        47.61763        -1.32935
C         47.66775        49.78245        -1.04888
C         46.43440        50.47968        -0.96757
C         47.67587        52.63571        -1.24975
C         46.43438        51.90332        -1.00090
C         47.67893        54.16656        -1.34317
C         46.41287        54.91552        -1.16217
C         47.68932        57.01795        -0.94863
C         46.39812        56.28003        -0.93708
C         47.67677        58.51179        -1.01277
C         46.36340        59.19213        -0.93403
C         47.65682        61.41257        -1.25884
C         46.34016        60.66465        -1.11706
C         47.66143        62.88861        -1.04807
C         46.40240        63.56631        -0.57492
C         47.73925        65.69392        -0.41169
C         46.55034        64.92570         0.01782
C         47.69098        67.11374        -0.36361
C         46.43711        67.81106        -0.05613
C         47.55668        69.97173        -0.62291
C         46.38576        69.21949        -0.13132
C         47.64228        71.43178        -0.34452
C         46.36576        72.13967        -0.07014
C         47.58991        74.29594        -0.29261
C         46.32025        73.60644        -0.28323
C         48.81905        37.91297         1.50683
C         50.05526        40.01424         1.12457
C         48.84115        39.29715         1.19551
C         50.07262        41.39097         0.81514
C         48.82606        42.06655         0.56332
C         50.18286        44.16084        -0.01812
C         48.86944        43.51020         0.25079
C         50.22104        45.46572        -0.42885
C         49.02611        46.12887        -1.03393
C         50.23423        48.39537        -0.85919
C         49.03903        47.61973        -1.26855
C         50.20363        49.76347        -0.78366
C         48.91394        50.47371        -0.74673
C         50.21710        52.73444        -0.87405
C         48.93982        52.00430        -0.79302
C         50.18985        54.16744        -0.97488
C         48.96272        54.83722        -1.07861
C         50.25164        57.02512        -1.36233
C         48.94048        56.28083        -1.32001
C         50.24569        58.52969        -1.37652
C         48.92207        59.26804        -1.39123
C         50.15313        61.38954        -0.99430
C         48.94362        60.70923        -1.11091
C         50.13409        62.84630        -0.89571
C         48.95683        63.56063        -0.82262
C         50.16816        65.72706        -0.71039
C         48.93485        65.00503        -0.68413
C         50.13964        67.14874        -0.65785
C         48.88936        67.81939        -0.60170
C         50.12475        70.04948        -0.70236
C         48.87094        69.27030        -0.81209
C         50.10659        71.45612        -0.71120
C         48.80528        72.19784        -0.95598
C         50.05115        74.31227        -0.41757
C         48.81150        73.64236        -0.49264
C         51.30220        42.09958         0.76774
C         52.63837        44.11915         0.37449
C         51.40554        43.45972         0.37016
C         52.79613        45.48966        -0.10899
C         51.51032        46.18120        -0.54834
C         52.71308        48.40400        -0.11726
C         51.44728        47.66636        -0.39847
C         52.75961        49.84950        -0.48872
C         51.45445        50.56530        -0.74536
C         52.60998        52.77269        -0.37426
C         51.41668        52.04833        -0.64355
C         52.62532        54.18856        -0.43077
C         51.43268        54.90793        -0.80235
C         52.59800        57.08492        -0.50700
C         51.45743        56.31385        -0.90814
C         52.55549        58.49759        -0.42887
C         51.42474        59.24855        -0.86572
C         52.63423        61.36587        -0.53430
C         51.39477        60.65866        -0.81978
C         52.70109        62.81952        -0.83676
C         51.41054        63.58117        -0.98497
C         52.61003        65.75294        -0.59755
C         51.40777        65.04168        -0.76409
C         52.57381        67.17263        -0.49697
C         51.37014        67.87762        -0.61129
C         52.55619        70.06340        -0.55094
C         51.35409        69.34232        -0.59663
C         52.55026        71.48166        -0.51808
C         51.31103        72.18270        -0.58448
C         52.52713        74.31771        -0.42727
C         51.29847        73.63129        -0.50187
C         53.98670        46.30484         0.20929
C         55.16924        48.48841         0.23908
C         54.01034        47.68999         0.06939
C         55.14080        49.92225         0.24138
C         53.92871        50.60237        -0.03420
C         55.10463        52.82972         0.31221
C         53.80424        52.04635         0.11125
C         55.08204        54.26355        -0.00154
C         53.84432        54.92781        -0.21923
C         55.02595        57.06627        -0.04104
C         53.82923        56.36022        -0.23361
C         54.97540        58.49975         0.33151
C         53.62965        59.23520         0.35632
C         54.96378        61.47101         0.26073
C         53.73567        60.70187        -0.05737
C         55.01544        62.91646        -0.02539
C         53.90914        63.58928        -0.45827
C         55.08084        65.75092        -0.42131
C         53.88464        65.05230        -0.51211
C         55.11074        67.18721        -0.32716
C         53.81279        67.92896        -0.07850
C         55.05138        70.09655        -0.20632
C         53.85841        69.32041        -0.70666
C         54.99814        71.48717        -0.13885
C         53.78073        72.20639        -0.37125
C         55.00779        74.35887        -0.27026
C         53.77496        73.64018        -0.35760
C         56.35022        50.68213         0.36811
C         57.57042        52.83402         0.15989
C         56.38021        52.08490         0.27273
C         57.56512        54.25539         0.06890
C         56.30352        54.96353        -0.00065
C         57.51864        57.10000        -0.04393
C         56.28831        56.39255        -0.02114
C         57.49593        58.56734        -0.15235
C         56.27198        59.25182         0.36096
C         57.55715        61.49150         0.24059
C         56.27545        60.75311         0.42698
C         57.53842        62.86405         0.31533
C         56.25589        63.68342         0.40244
C         57.61722        65.72810        -0.31378
C         56.35229        64.91291        -0.51729
C         57.58856        67.21293        -0.30900
C         56.28401        67.91732        -0.26970
C         57.48708        70.05363         0.07274
C         56.28606        69.36749        -0.08013
C         57.51884        71.50037         0.28758
C         56.19819        72.25890         0.23027
C         57.47840        74.37754         0.05919
C         56.23878        73.71526        -0.03135
C         58.76327        54.99655         0.01321
C         59.99492        57.15720        -0.08144
C         58.76716        56.41550        -0.06090
C         60.05402        58.55868        -0.08389
C         58.79632        59.33293        -0.18546
C         60.04106        61.43855         0.19221
C         58.81008        60.77352         0.14195
C         60.08648        62.86634         0.32538
C         58.81256        63.58414         0.47119
C         60.11989        65.76916         0.07991
C         58.83455        65.08380         0.27256
C         60.10962        67.20392         0.00868
C         58.79545        67.90605         0.30084
C         60.03975        70.12411        -0.20723
C         58.77214        69.35096        -0.12760
C         59.99630        71.58431         0.04418
C         58.77515        72.25769         0.12641
C         59.95832        74.38712         0.32192
C         58.73413        73.69495         0.19273
C         61.26311        59.28355         0.01904
C         62.50303        61.42222         0.10987
C         61.29294        60.70108         0.09366
C         62.54157        62.84344         0.14089
C         61.29106        63.57138         0.21983
C         62.56080        65.69421        -0.00440
C         61.31927        65.01884         0.12388
C         62.55688        67.15247        -0.17065
C         61.29201        67.90459        -0.08374
C         62.41522        70.01721         0.73702
C         61.39454        69.41850        -0.22885
C         62.32600        71.50838         0.84564
C         61.20139        72.26290         0.37710
C         62.38898        74.37748         0.87726
C         61.18316        73.69831         0.53168
C         63.75452        63.55997         0.12752
C         65.02631        65.69659         0.23089
C         63.79584        64.98331         0.10523
C         65.08638        67.09577         0.38392
C         63.84456        67.88790         0.17691
C         65.04068        69.87173         1.10953
C         63.72666        69.23116         0.85829
C         65.12932        71.14261         1.67170
C         63.27922        72.24210         1.53719
C         64.80840        74.17740         1.58200
C         63.49957        73.64582         1.35534
C         66.28128        67.82549         0.50272
C         67.44756        70.02833         0.72168
C         66.27332        69.24496         0.71455
C         67.41884        71.42812         0.98104
C         66.20053        72.02964         1.43564
C         67.24624        74.22296         1.44614
C         66.04878        73.46484         1.56292
C         68.56635        72.25819         0.85961
C         68.46822        73.62243         1.12674
O         40.97475        54.23191         1.07057
O         62.71024        69.24547         1.92820
O         51.78170        48.10324         0.98108
O         30.19726        60.96621        -1.22458
O         64.07654        71.59324         2.47423
O         45.75303        45.49351        -2.50116
O         33.37726        71.82500         3.05873
O         29.77449        66.41256         2.20906
O         35.91153        67.52423         0.49815
O         31.98124        64.96494         2.68753
O         48.00696        69.63252        -1.97949
O         48.78616        51.31709         0.48214
O         39.24711        68.47000         2.86381
O         37.43398        62.36253        -1.47438
O         39.15995        45.82009        -2.27656
O         46.87532        61.02398        -2.43819
O         43.55404        58.83791         1.11982
O         40.76025        52.76524        -2.09087
O         48.07707        44.36638         1.17944
O         44.95190        53.33397        -2.40056
O         52.19870        63.16641        -2.16844
O         63.44406        67.74012        -1.20763
O         56.78939        71.89724         1.51465
O         43.14543        49.82655         0.33954
O         23.83209        71.63753        -2.19323
O         37.67955        57.69360        -1.61058
O         46.32423        65.10365         1.44927
O         43.37731        52.31909         0.65197
O         58.71642        64.53728         1.62340
O         41.43445        70.00538         2.65560
O         34.70700        69.54321         3.12029
O         46.80417        63.60453        -1.99129
O         44.11456        63.85030         1.64907
O         48.52296        48.01469        -2.56240
O         42.82565        40.22074        -0.95271
O         47.31785        71.76940         1.02372
O         40.15017        57.82011         1.34100
O         49.61615        56.54119        -2.59439
O         57.93299        66.48489        -1.53520
O         40.67641        50.23307        -2.46496
O         47.75358        53.30721        -2.54177
O         40.32172        62.25390        -1.58336
O         47.91895        57.79929         0.27878
O         33.42891        56.57584         2.02211
O         40.65909        43.26503        -2.01696
O         43.25240        48.00961        -2.72682
O         52.34745        50.14474        -1.86614
O         54.24947        52.49979         1.44827
O         52.40424        45.67461        -1.55861
O         49.64593        58.99599        -2.62822
O         59.32737        69.68880        -1.44254
O         25.04695        69.60622        -2.20419
O         55.53599        61.21485         1.61340
O         48.58974        45.32859        -2.19358
O         44.29744        39.89033         2.26858
O         43.65778        43.17987         1.28116
O         35.96778        59.96904        -1.34520
O         58.00224        59.08380        -1.42402
O         44.60121        34.98715         0.18244
O         55.74938        58.66713         1.58848
O         35.50407        52.56112         2.04240
H         34.75063        53.01225         2.48056
O         31.13674        70.05558        -0.94828
H         30.49393        70.58742        -1.46487
O         25.88301        67.32436        -2.86303
H         26.69103        66.86555        -3.17359
O         54.05333        69.11340        -2.13781
H         54.03885        69.98793        -2.57980
O         42.02707        67.51421         3.05671
H         41.65180        68.28401         3.54571
O         39.08680        39.15216        -0.18293
H         39.42344        39.15618        -1.10283
O         34.18477        59.12846         2.41799
H         34.03108        58.18373         2.68214
O         28.54329        63.22704         1.97985
H         29.13923        63.75081         2.55856
O         43.81735        73.14215        -2.09775
H         42.93819        72.76391        -2.31362
O         48.59680        72.24818        -2.39237
H         48.46760        71.31606        -2.69723
O         28.59640        71.80603         2.21757
H         29.18282        72.24952         2.86734
O         53.17434        59.23460         1.73742
H         53.97501        59.40484         2.28769
O         53.70475        68.12584         1.35849
H         53.75165        67.24999         1.79555
O         56.42460        64.37133        -1.85609
H         56.69833        65.10815        -2.44833
O         61.93553        69.72439        -1.53717
H         61.23736        69.50551        -2.19444
O         58.63197        67.91897         1.73967
H         58.67723        66.99684         2.07382
O         31.16245        60.59607         2.29023
H         31.92625        60.21895         2.77988
O         56.05376        64.12222         1.76079
H         55.98864        63.31248         2.31538
O         38.91446        64.44648        -1.51771
H         38.77355        63.73602        -2.18685
O         35.47956        65.06999         3.15151
H         34.58354        64.96280         3.53784
H         23.25649        75.20220        -0.72045
H         25.65220        75.28683        -0.13988
H         28.10858        75.34653         0.38757
H         30.49670        75.29165         1.01413
H         32.87904        75.23371         1.18423
H         35.21293        75.16317         0.62411
H         37.63911        75.15589         0.12094
H         40.10045        75.16839        -0.24352
H         42.51111        75.18442        -0.62136
H         45.03406        75.29547        -0.58059
H         47.58936        75.38838        -0.14963
H         50.05879        75.39527        -0.21651
H         52.52049        75.41728        -0.38000
H         54.98571        75.45486        -0.36899
H         57.49600        75.47535        -0.02137
H         59.95033        75.48584         0.37617
H         62.43633        75.47380         0.80598
H         64.89997        75.27516         1.52673
H         67.19786        75.31577         1.56073
H         22.18265        69.27726        -0.37088
H         20.96944        71.63689        -0.40053
H         21.21427        74.02743        -0.60843
H         24.94597        65.09940        -1.63184
H         23.82342        67.11435        -0.28556
H         27.03858        60.84815        -0.82940
H         25.98350        63.01809        -1.19527
H         29.37433        56.42989         0.10837
H         28.18446        58.56855        -0.08059
H         31.81918        52.14109         0.30298
H         30.60756        54.25588         0.37426
H         34.32913        47.87746         0.24426
H         33.05742        49.98928         0.19200
H         36.76922        43.64695         0.26523
H         35.55596        45.79013         0.28425
H         39.57529        39.88948         1.66846
H         37.96921        41.52081         0.36115
H         41.68006        35.18346         1.70509
H         40.45333        37.23938         1.26689
H         45.17743        31.97595         2.77857
H         43.00725        33.08299         2.40009
H         47.31944        33.16034         2.48028
H         48.56095        35.30844         2.14823
H         49.77115        37.39522         1.69621
H         51.00448        39.49078         1.31086
H         52.22552        41.55613         1.01754
H         53.51216        43.61166         0.81004
H         54.90270        45.77642         0.51461
H         56.13509        47.98683         0.39917
H         57.30277        50.13459         0.42749
H         58.53660        52.30742         0.16360
H         59.72447        54.46149         0.03382
H         60.93857        56.59256        -0.03590
H         62.21532        58.73220         0.03234
H         63.45280        60.86910         0.05804
H         64.70348        63.00372         0.14138
H         65.95920        65.11760         0.30217
H         67.24659        67.30135         0.44332
H         68.40677        69.55664         0.46307
H         69.52679        71.81964         0.55456
H         69.36400        74.25356         1.03888
