         346
 CSIRO Nanostructure Databank - Neutral Graphene Oxide Data Set
C          1.51112         1.87900        -1.91424
C          1.44445         3.26875        -2.03493
C          2.69484         1.24551        -1.54058
C          2.58427         4.07084        -1.80129
C          1.34675         6.25718        -1.96916
C          1.28059         7.67252        -1.79092
C          2.52201         5.53714        -1.86862
C          2.38330         8.45228        -1.48980
C          1.12677        10.54444        -0.92369
C          1.07915        11.90613        -0.48240
C          2.31106         9.87239        -1.15022
C          2.19918        12.67667        -0.30376
C          1.01890        14.87015        -0.14709
C          1.05142        16.23708        -0.18365
C          2.14051        14.02127         0.40573
C          2.21110        16.96953         0.18059
C          2.24634        18.39920         0.18043
C          3.86489         2.00521        -1.31378
C          3.79747         3.41521        -1.48115
C          5.08719         1.37076        -0.87877
C          5.01738         4.18585        -1.15358
C          3.77122         6.31273        -1.75836
C          3.71091         7.80562        -1.55643
C          5.00761         5.66271        -1.23809
C          4.83628         8.42477        -0.73816
C          3.56789        10.65083        -1.10235
C          3.50831        12.13461        -0.69011
C          4.87975         9.91503        -0.98874
C          4.68203        12.68903         0.04466
C          3.47136        14.76293         0.47156
C          3.41544        16.23329         0.59791
C          4.67937        14.08948         0.50231
C          4.71786        16.99857         0.57668
C          3.42336        19.09681         0.16663
C          4.71630        18.36845        -0.07500
C          6.29842         2.05156        -0.78595
C          6.32192         3.46988        -1.22451
C          7.52799         1.45743        -0.42907
C          7.60146         4.24670        -1.29993
C          6.27134         6.44854        -1.19482
C          6.20417         7.77295        -0.86640
C          7.59403         5.77894        -1.50367
C          7.40469         8.51387        -0.46248
C          6.06552        10.59063        -0.34532
C          5.68883        11.81615         0.35741
C          7.33900         9.84419        -0.05334
C          7.46094        12.76252         0.95387
C          5.96578        14.82264         0.66751
C          5.98424        16.24161         0.54833
C          7.24379        14.20420         0.82845
C          7.18105        16.99891         0.45143
C          5.96397        19.13805         0.25055
C          7.16783        18.47170         0.37376
C          8.74616         2.17568        -0.41425
C          8.83044         3.57469        -0.79227
C          9.92902         1.53007         0.00787
C         10.02880         4.26446        -0.69871
C          8.75376         6.47120        -0.82325
C          8.67410         7.78052        -0.44269
C         10.04665         5.72945        -0.96381
C          9.90966         8.50345         0.07352
C          8.57430        10.63370         0.13587
C          8.51172        12.08490         0.37045
C          9.80227        10.02554        -0.10969
C          9.71897        12.93934         0.23011
C          8.42728        14.96923         0.78174
C          8.42424        16.34511         0.54123
C          9.67140        14.17619         1.09388
C          9.70720        17.06888         0.20842
C          8.41191        19.19152         0.43786
C          9.66764        18.56778         0.39492
C         11.15625         2.20636         0.10272
C         11.24048         3.61310        -0.24682
C         12.32371         1.50763         0.49145
C         12.46539         4.29022        -0.12549
C         11.33251         6.48066        -0.91275
C         11.19025         7.92511        -0.51071
C         12.68360         5.64664        -0.80118
C         12.22676         8.74494        -0.76019
C         11.03393        10.84586        -0.32104
C         11.03552        12.29599         0.02613
C         12.36464        10.17544        -0.44654
C         12.28500        12.94035         0.49388
C         10.95316        14.97766         1.08031
C         10.93306        16.46481         0.85605
C         12.22941        14.24691         0.93239
C         12.19773        17.20571         0.71215
C         10.89651        19.25434         0.36198
C         12.17728        18.58942         0.42828
C         13.54428         2.17309         0.66326
C         13.60336         3.61050         0.43507
C         14.73662         1.45668         0.93886
C         14.78549         4.29496         0.76397
C         13.90052         6.36376        -0.22375
C         14.10903         7.72036        -0.54177
C         14.90674         5.68729         0.50485
C         14.96612         8.57194         0.17637
C         13.61629        10.75627         0.12718
C         13.54098        12.18467         0.46324
C         14.78450         9.98626         0.40059
C         14.69288        12.87115         0.79309
C         13.43098        15.03289         1.28914
C         13.42400        16.53454         1.14360
C         14.73887        14.31066         1.16759
C         14.74115        17.27227         0.88169
C         13.41668        19.29251         0.27351
C         14.67818        18.66198         0.36447
C         15.96131         2.11416         1.17844
C         15.90405         3.59057         1.49905
C         17.17096         1.43340         1.25678
C         17.24800         4.28273         1.39056
C         16.11522         6.39339         0.84695
C         16.26987         7.85371         0.46947
C         17.26157         5.72209         1.27775
C         17.18586         8.53669         1.47009
C         15.96692        10.66019         0.96487
C         15.90941        12.12524         1.10034
C         17.14585        10.02642         1.28773
C         17.15216        12.92801         1.25231
C         15.95051        15.08318         0.81526
C         15.97429        16.48092         0.63631
C         17.16201        14.29002         0.65411
C         17.14799        17.16482         0.24235
C         15.90375        19.30954         0.12546
C         17.16490        18.60969         0.12650
C         18.42350         2.10942         1.46988
C         18.42951         3.57494         1.50776
C         19.59566         1.40091         1.58392
C         19.71428         4.26358         1.59653
C         18.52589         6.42950         1.44459
C         18.55064         7.87310         1.39548
C         19.72194         5.72063         1.55993
C         19.74779         8.56357         1.32253
C         18.44389        10.75466         1.16771
C         18.46095        12.22990         1.38161
C         19.74149        10.01799         1.01110
C         19.73231        12.99163         1.27433
C         18.48488        14.97664         0.37774
C         18.41004        16.42524         0.01086
C         19.74919        14.39129         0.81167
C         19.69977        17.14771        -0.21281
C         18.37831        19.30247         0.02075
C         19.67975        18.66584        -0.42571
C         20.91265         2.04780         1.89701
C         20.88196         3.54834         1.75277
C         22.03253         1.45239         1.07740
C         22.21359         4.23092         1.89512
C         20.98791         6.43198         1.59996
C         21.01457         7.88742         1.46762
C         22.16347         5.70811         1.64481
C         22.22176         8.60408         1.50546
C         21.07663        10.78446         0.87626
C         21.01193        12.22122         1.38781
C         22.30865        10.04492         1.36096
C         22.27500        13.01007         1.34772
C         20.97918        15.05370         0.57972
C         20.98107        16.45440         0.12355
C         22.20849        14.38421         0.79546
C         22.15756        17.14414        -0.02086
C         20.99259        19.32110        -0.06867
C         22.18362        18.59965        -0.16188
C         23.18499         2.17466         0.73903
C         23.30767         3.56107         1.08507
C         24.28024         1.53048         0.07221
C         24.47112         4.29355         0.72762
C         23.46821         6.37981         1.63356
C         23.49342         7.88163         1.66214
C         24.60706         5.66526         1.03879
C         24.75660         8.57538         1.30294
C         23.49914        10.73622         1.44593
C         23.55245        12.22342         1.39241
C         24.84074        10.03776         1.67186
C         24.81931        12.94113         1.09205
C         23.42988        14.94800         0.19135
C         23.40993        16.37170        -0.35210
C         24.74254        14.27742         0.42128
C         24.72195        17.10731        -0.19989
C         23.44873        19.23529        -0.34813
C         24.67846        18.52801        -0.46321
C         25.45978         2.21726        -0.25499
C         25.55543         3.62476         0.03635
C         26.58615         1.53045        -0.81534
C         26.73123         4.34398        -0.28971
C         25.62468         6.49046         0.28405
C         25.82770         7.88914         0.81810
C         26.88182         5.72013        -0.00327
C         27.14812         8.50685         0.70123
C         25.96194        10.67814         0.85780
C         25.98952        12.14341         0.62492
C         27.25093         9.95550         0.77292
C         27.25798        12.84595         0.32752
C         26.03352        15.06455         0.48195
C         25.93155        16.42595        -0.16391
C         27.24111        14.23287         0.08427
C         27.14309        17.05038        -0.60843
C         25.87956        19.17029        -0.82303
C         27.07973        18.43445        -1.01005
C         27.77203         2.19475        -1.14269
C         27.81416         3.65727        -0.99395
C         28.94793         1.53187        -1.58291
C         29.21116         4.35969        -1.00832
C         28.16132         6.34466         0.02532
C         28.25960         7.73724         0.42514
C         29.32954         5.61181        -0.27095
C         29.62237         8.34487         0.65858
C         28.42038        10.64226         0.49222
C         28.44832        12.07822         0.20011
C         29.68187         9.86343         0.41731
C         29.61832        12.74419        -0.25687
C         28.39561        14.88040        -0.41105
C         28.32910        16.29296        -0.79516
C         29.57564        14.11340        -0.59604
C         29.42580        16.88179        -1.48982
C         28.20671        19.02020        -1.62229
C         29.34919        18.25378        -1.91515
C         30.19685         2.16664        -1.61061
C         30.38042         3.49912        -1.21832
C         31.67552         4.08740        -1.00546
C         30.69410         6.06330         0.22167
C         30.72066         7.56148        -0.02414
C         31.82890         5.30554        -0.42378
C         31.67377         8.19357        -0.82685
C         30.86842        10.48867        -0.26975
C         30.93222        12.00261        -0.52395
C         31.79197         9.57564        -0.94886
C         31.42926        12.44121        -1.88566
C         30.82346        14.75311        -1.19845
C         30.59020        16.12197        -1.80926
C         31.40684        13.74677        -2.18450
C         31.61957        16.71309        -2.52684
C         30.43504        18.82080        -2.64866
C         31.53722        18.05794        -2.95977
O          7.03312         3.60552        -2.50746
O         18.99878        16.53358        -1.35673
O         10.35956        13.08340        -1.05277
O         25.56684        11.20992        -0.44662
O         14.12184        14.57596         2.48675
O          6.41627        12.04534         1.53436
O         19.06218        12.74265         2.60662
O          5.87512        10.52853        -1.81640
O         13.27976         8.24701        -1.52885
O         10.71775         6.17103        -2.21377
O         18.93513        10.35204        -0.18121
O         24.43632        12.80226         2.46622
O         11.72626        10.79310        -1.64047
O         23.69155         7.12306         2.92705
O         30.80473        10.35821         1.23485
O         14.16919        17.18903         2.22101
O          4.06923         7.24426        -2.84866
O         28.29645         4.39029        -2.15290
O         24.09365        14.08903        -0.86492
O         21.61395        12.64899         2.63707
O         17.77798        14.19019        -0.67780
O         16.36759        12.66636         2.43623
O          3.63946        11.74143        -2.08147
O          4.82054         5.00165         0.08134
O          4.00592        16.84193         1.82981
O         29.80924         8.19479         2.11596
H         30.50033         8.85562         2.36198
O          9.53231        13.66942         2.45007
H          9.74167        14.41552         3.05670
O         23.28680        16.28147        -1.81212
H         23.70952        15.42929        -2.07762
O         31.78450        15.03234        -0.15048
H         32.04693        14.16555         0.25359
O          1.77049        13.72825         1.79590
H          1.85596        14.56158         2.30654
O         19.60073        18.91589        -1.87623
H         19.21282        18.09206        -2.26692
O         16.65043         8.25771         2.79302
H         17.11864         8.81825         3.44635
O          9.96433         8.29155         1.52205
H          9.13486         8.63974         1.91296
O          4.76475        18.07792        -1.52507
H          4.80324        18.93504        -1.99948
O         22.61906         4.08878         3.32024
H         23.26809         4.80126         3.51627
O         16.99526         7.86721        -0.79844
H         16.41386         7.49201        -1.49378
O         21.21923         1.72496         3.30095
H         21.85263         2.41211         3.62246
O         26.21012        15.33903         1.90935
H         27.05890        15.81603         2.02429
O         13.07112         5.30657        -2.15550
H         12.25768         5.39820        -2.71327
O         10.87017        15.91710         2.21617
O          9.93412        16.83538        -1.21871
H          9.17612        17.21325        -1.71262
O         15.54021         3.67149         2.92347
H         16.25388         3.23225         3.43336
O          4.42465         8.30823         0.65759
H          4.44021         7.35680         0.90231
O         25.22207        10.15116         3.06072
H         24.55966         9.67303         3.60241
O         31.93714        12.46166         0.43119
H         31.72831        12.01600         1.28524
O         30.80139         5.77161         1.64387
H         30.37277         6.52303         2.13081
O         21.33378        10.94368        -0.54827
H         20.47845        10.82749        -1.02691
O          7.82048         6.01042        -2.92080
H          7.43689         5.24267        -3.40526
O         24.99001         6.71938        -1.03986
H         25.06221         5.88458        -1.55140
H          0.60913         1.27903        -2.09936
H          0.49004         3.73527        -2.31375
H          2.72421         0.15349        -1.41923
H          0.39191         5.72774        -2.09684
H          0.28276         8.13330        -1.81564
H          0.17256        10.00218        -0.98646
H          0.09536        12.30122        -0.19031
H          0.08999        14.35554        -0.43221
H          0.16646        16.79279        -0.52979
H          1.28801        18.94167         0.15792
H          5.05651         0.29564        -0.64618
H          3.41654        20.19714         0.15658
H          7.54328         0.39691        -0.13609
H          5.94329        20.23843         0.21784
H          9.88516         0.46555         0.28264
H          8.36445        20.29112         0.47332
H         12.26529         0.42304         0.66599
H         10.88894        20.35507         0.34828
H         14.71356         0.35644         0.90083
H         13.37987        20.35937         0.00642
H         17.18453         0.33971         1.12911
H         15.90567        20.38497        -0.10829
H         19.56739         0.30116         1.53875
H         18.33162        20.40100        -0.05672
H         21.98638         0.37928         0.83502
H         21.03197        20.42086        -0.11861
H         24.20084         0.45695        -0.15538
H         23.46453        20.32804        -0.48238
H         26.52378         0.44028        -0.95068
H         25.87097        20.24489        -1.06036
H         28.89400         0.45550        -1.80159
H         28.16359        20.07204        -1.94218
H         31.08603         1.56519        -1.85185
H         32.56134         3.51504        -1.32179
H         32.84554         5.68205        -0.23683
H         32.41403         7.56893        -1.35029
H         32.59996         9.99241        -1.56478
H         31.84002        11.70205        -2.58977
H         31.79315        14.10095        -3.15279
H         32.53239        16.14025        -2.74293
H         30.37098        19.87113        -2.96732
H         32.37127        18.49403        -3.52702
