         600
 CSIRO Nanostructure Databank - Neutral Graphene Oxide Data Set
C         23.15574        27.31835        -0.20194
C         23.16612        28.67481        -0.40302
C         23.18641        31.56479        -0.81551
C         23.17598        32.93449        -0.93713
C         23.13295        35.82591        -1.15284
C         23.10094        37.21764        -1.32680
C         23.05442        40.08648        -1.83417
C         23.10015        41.41216        -2.28765
C         23.04944        45.00877        -1.55967
C         23.01851        46.06752        -0.66899
C         25.47082        24.59092         0.84651
C         24.32407        25.23987         0.43499
C         25.54012        27.37465         0.41250
C         24.33670        26.63788         0.21343
C         25.54037        28.79143         0.20836
C         24.35122        29.44538        -0.19918
C         25.51933        31.63627        -0.09447
C         24.34686        30.87650        -0.37940
C         25.48683        33.05383        -0.17442
C         24.31321        33.72002        -0.58917
C         25.40338        36.00084        -0.16660
C         24.25863        35.16172        -0.68309
C         25.48768        37.36399        -0.81130
C         24.26617        38.00328        -1.21853
C         25.51401        40.13261        -1.71879
C         24.23878        39.40343        -1.55837
C         25.51629        41.61652        -1.76170
C         24.29820        42.13202        -2.26409
C         25.46824        44.63013        -1.13235
C         24.26363        44.34166        -1.80265
C         25.46360        45.87122        -0.41116
C         24.23864        46.55656        -0.14526
C         25.45940        48.40948         0.85127
C         24.26736        47.78481         0.58021
C         28.00856        23.13510         1.26705
C         27.88074        24.57314         1.52559
C         26.67799        25.30037         1.05174
C         27.97017        27.43639         0.95583
C         26.72541        26.69195         0.82621
C         27.97582        28.85788         0.69534
C         26.75727        29.54296         0.38695
C         27.96948        31.69798         0.32436
C         26.74283        30.95178         0.24385
C         27.96887        33.10925         0.22445
C         26.66235        33.84292         0.36433
C         27.91712        35.95070        -0.20353
C         26.71851        35.26734        -0.12869
C         27.93780        37.37170        -0.50579
C         26.71368        38.02611        -0.84994
C         27.97307        40.22144        -1.07445
C         26.78988        39.40558        -1.37777
C         27.92026        41.64097        -1.16717
C         26.68902        42.37705        -1.43308
C         27.89776        44.47021        -0.83238
C         26.68151        43.80972        -1.18875
C         27.92118        45.84889        -0.41643
C         26.69548        46.51410        -0.09135
C         27.92889        48.57850         0.47187
C         26.69591        47.82859         0.44444
C         27.95369        49.95710         0.77783
C         30.45257        23.20624         1.53252
C         29.20429        22.50172         1.36459
C         30.46951        24.61788         1.57526
C         29.19026        25.36226         1.68809
C         30.39223        27.55440         1.45879
C         29.15010        26.79466         1.33427
C         30.43747        28.93586         0.98751
C         29.20176        29.58692         0.70564
C         30.43387        31.71127         0.43550
C         29.20394        30.99754         0.46887
C         30.42302        33.12260         0.23721
C         29.18129        33.82637         0.15292
C         30.39382        35.96896        -0.05900
C         29.18587        35.25828        -0.02469
C         30.39969        37.41027        -0.26682
C         29.15786        38.08894        -0.53435
C         30.39684        40.22446        -0.71160
C         29.16149        39.51646        -0.74829
C         30.37944        41.64223        -0.83888
C         29.14542        42.35351        -0.96530
C         30.38443        44.48071        -0.73882
C         29.14826        43.77195        -0.86873
C         30.38947        45.89276        -0.51960
C         29.14412        46.55300        -0.27281
C         30.35138        48.69993         0.01666
C         29.14372        47.94093         0.08725
C         30.31483        50.09748         0.21283
C         29.11309        50.70296         0.61269
C         32.91797        20.37692         1.59890
C         31.72702        21.06527         1.62001
C         32.92521        23.18122         1.36638
C         31.69359        22.48150         1.50486
C         32.92199        24.60965         1.28805
C         31.70175        25.30961         1.44811
C         32.95521        27.48924         1.13319
C         31.73999        26.77703         1.53871
C         32.92709        28.88984         0.93347
C         31.67453        29.60821         0.86423
C         32.90191        31.71351         0.43740
C         31.67588        31.01015         0.57125
C         32.88980        33.13340         0.25734
C         31.65329        33.84210         0.17577
C         32.88462        35.96441         0.07021
C         31.64761        35.26275         0.05326
C         32.88073        37.46692         0.22268
C         31.60797        38.12380        -0.25520
C         32.86369        40.22716        -0.69704
C         31.62786        39.52192        -0.53436
C         32.83128        41.61957        -0.88248
C         31.61288        42.35116        -0.84187
C         32.85664        44.50621        -0.79237
C         31.62143        43.78217        -0.82421
C         32.85757        45.92267        -0.61873
C         31.61278        46.61564        -0.45753
C         32.82843        48.74269        -0.15768
C         31.60932        48.02907        -0.24090
C         32.82934        50.16597         0.03709
C         31.52968        50.91476        -0.17578
C         32.73651        52.94237         0.63211
C         31.57091        52.30276         0.40092
C         35.43188        18.91529         1.59975
C         35.41293        20.32223         1.46742
C         34.16097        21.04964         1.45778
C         35.40309        23.17234         1.19912
C         34.16079        22.46128         1.33268
C         35.39305        24.59989         1.08183
C         34.16199        25.32335         1.13068
C         35.40115        27.44866         0.82272
C         34.16646        26.74597         1.01323
C         35.38762        28.87152         0.66055
C         34.15443        29.58923         0.68216
C         35.36882        31.71058         0.28101
C         34.14566        31.00358         0.47769
C         35.35955        33.13457         0.17830
C         34.11434        33.85208         0.20446
C         35.38128        36.03135         0.39954
C         34.09662        35.27301         0.15234
C         35.36125        37.44428        -0.14552
C         34.14180        38.13025        -0.28040
C         35.36190        40.16807        -0.85100
C         34.13097        39.50010        -0.64553
C         35.36832        41.60462        -1.20238
C         34.05850        42.36806        -1.19415
C         35.31926        44.50915        -0.89118
C         34.09327        43.82157        -0.95560
C         35.33030        45.92904        -0.66974
C         34.08976        46.62869        -0.55411
C         35.29810        48.73400        -0.15473
C         34.08839        48.04290        -0.28417
C         35.31402        50.12368         0.41913
C         34.01319        50.86637         0.24318
C         35.24044        52.98084         0.59257
C         34.01953        52.28035         0.48948
C         35.28065        54.38951         0.83318
C         37.85827        18.88169         1.49197
C         36.62653        18.21707         1.62058
C         37.87833        20.28875         1.39489
C         36.64768        21.02256         1.36443
C         37.85381        23.19360         1.13509
C         36.63324        22.46133         1.21740
C         37.85345        24.58186         1.01730
C         36.62686        25.30960         0.96698
C         37.86918        27.44409         0.62797
C         36.62876        26.73545         0.82435
C         37.84946        28.85650         0.38776
C         36.61377        29.56852         0.43243
C         37.82286        31.65323        -0.05985
C         36.60762        30.98223         0.23463
C         37.76836        33.08113        -0.40254
C         36.56546        33.85283        -0.06132
C         37.84547        35.95437        -0.15308
C         36.62034        35.25994        -0.01403
C         37.85866        37.43661         0.14000
C         36.58341        38.12067        -0.29593
C         37.85741        40.18883        -0.76149
C         36.59472        39.49425        -0.63353
C         37.84454        41.61972        -1.07483
C         36.59214        42.38337        -1.00276
C         37.79235        44.52247        -0.72546
C         36.57607        43.78334        -0.93578
C         37.80231        45.92282        -0.58290
C         36.56096        46.63583        -0.55587
C         37.74601        48.79811        -0.39310
C         36.55167        48.06534        -0.34505
C         37.73894        50.30130        -0.54856
C         36.51737        50.94972         0.04671
C         37.73918        53.06947         0.30640
C         36.49850        52.30476         0.30030
C         37.71669        54.45454         0.56713
C         36.45325        55.09510         0.80197
C         40.20480        16.04783         0.59336
C         39.09494        16.70339         1.01602
C         40.40075        18.84447         1.30662
C         39.12931        18.06934         1.67600
C         40.30745        20.29298         1.00936
C         39.13917        20.98870         1.19539
C         40.31079        23.20000         0.67519
C         39.17111        22.49264         1.37162
C         40.34068        24.56251         0.63148
C         39.15757        25.33884         1.15858
C         40.30897        27.42618         0.34998
C         39.09970        26.75376         0.64083
C         40.30531        28.84053         0.14685
C         39.07300        29.55529         0.16398
C         40.31192        31.68348        -0.20050
C         39.06068        30.97060        -0.06586
C         40.34091        33.09455        -0.32213
C         39.09361        33.83664        -0.53980
C         40.32343        35.97879        -0.29158
C         39.07740        35.28766        -0.31676
C         40.32732        37.42115        -0.33667
C         39.11853        38.12712        -0.31484
C         40.34980        40.25408        -0.60838
C         39.08805        39.53122        -0.57447
C         40.37912        41.65663        -0.61722
C         39.14258        42.38181        -0.91549
C         40.35669        44.54820        -0.32512
C         39.03790        43.79324        -0.49375
C         40.29951        46.00819        -0.47449
C         39.06050        46.64075        -0.52972
C         40.31275        48.88720        -0.54063
C         39.00350        48.10539        -0.66440
C         40.24522        50.30580        -0.12941
C         39.02593        50.97876        -0.10470
C         40.20703        53.07733         0.42439
C         38.98928        52.37640         0.20063
C         40.18468        54.49465         0.63665
C         38.95037        55.19391         0.66083
C         40.14278        57.31006         0.91949
C         38.96451        56.61648         0.80191
C         42.61284        16.01459        -0.00914
C         41.49994        16.67215         0.49507
C         42.77644        18.83938         0.25254
C         41.61669        18.10675         0.81219
C         42.76510        20.23222         0.19336
C         41.47506        20.93932         0.35920
C         42.73833        23.12623        -0.05962
C         41.45855        22.42871         0.16484
C         42.73865        24.55006        -0.03592
C         41.54450        25.27382         0.24061
C         42.76767        27.40092         0.01947
C         41.54282        26.69139         0.21863
C         42.77165        28.82420        -0.02816
C         41.54088        29.54598        -0.01016
C         42.79258        31.67577        -0.16649
C         41.54632        30.96624        -0.12070
C         42.79530        33.10838        -0.24328
C         41.56060        33.81974        -0.28584
C         42.79579        35.96740        -0.41375
C         41.55507        35.26072        -0.34150
C         42.80465        37.39949        -0.51106
C         41.58112        38.11871        -0.48569
C         42.81708        40.26096        -0.64947
C         41.58301        39.53895        -0.54632
C         42.81882        41.67913        -0.68560
C         41.60647        42.39379        -0.58879
C         42.82349        44.57362        -0.55949
C         41.60970        43.83119        -0.56450
C         42.79288        46.01128        -0.37503
C         41.55297        46.72643        -0.42442
C         42.74671        48.83310         0.01301
C         41.55413        48.13507        -0.31099
C         42.71054        50.25585         0.24152
C         41.47241        50.97327         0.19444
C         42.67608        53.06500         0.71028
C         41.45089        52.37413         0.43328
C         42.65772        54.51106         0.86619
C         41.41654        55.20588         0.81205
C         42.61372        57.33196         1.07394
C         41.39415        56.62597         0.93845
C         43.82977        16.69033        -0.23884
C         45.15430        18.81825        -0.41005
C         43.93130        18.08939        -0.13254
C         45.15292        20.23616        -0.43736
C         43.92839        20.96252        -0.21067
C         45.11633        23.10678        -0.85056
C         43.90683        22.38297        -0.30613
C         45.18178        24.55828        -0.44444
C         43.98477        25.25945        -0.21044
C         45.22933        27.38941        -0.18716
C         43.99168        26.68506        -0.11998
C         45.23054        28.80330        -0.10278
C         44.01764        29.52679        -0.08298
C         45.26880        31.67418        -0.20420
C         44.01860        30.96443        -0.12393
C         45.26332        33.10463        -0.30728
C         44.02878        33.82197        -0.30991
C         45.27306        35.95552        -0.46385
C         44.02857        35.24863        -0.40464
C         45.29201        37.38378        -0.58832
C         44.04297        38.11609        -0.64202
C         45.29339        40.26489        -0.93721
C         44.03563        39.52062        -0.74269
C         45.32561        41.71768        -0.69676
C         44.06555        42.44856        -1.05037
C         45.29538        44.58048        -0.46878
C         44.05922        43.89410        -0.62913
C         45.27143        46.01698        -0.23903
C         44.00770        46.71565        -0.18451
C         45.18741        48.83094         0.40127
C         43.98140        48.12402         0.08037
C         45.14984        50.21601         0.67189
C         43.90812        50.94087         0.57976
C         45.09835        53.04369         1.34652
C         43.87239        52.34644         0.81916
C         45.13154        54.52507         1.06870
C         43.86518        55.23901         1.00946
C         43.81721        56.65380         1.09644
C         47.57100        18.80347        -0.74462
C         46.38006        18.12631        -0.59860
C         47.61729        20.22149        -0.73882
C         46.39327        20.94803        -0.62848
C         47.63482        23.07548        -0.72550
C         46.41460        22.36627        -0.67207
C         47.65553        24.51373        -0.67311
C         46.42631        25.24939        -0.49508
C         47.70416        27.37114        -0.45234
C         46.45500        26.65916        -0.34220
C         47.73900        28.78064        -0.35196
C         46.52729        29.51673         0.15367
C         47.72238        31.66493        -0.36824
C         46.49299        30.97518        -0.21121
C         47.72788        33.09264        -0.40353
C         46.49611        33.80846        -0.36895
C         47.74575        35.93960        -0.41646
C         46.49924        35.23983        -0.42232
C         47.75273        37.36658        -0.41854
C         46.52684        38.06111        -0.57074
C         47.80235        40.25489        -0.41968
C         46.59183        39.51058        -0.80849
C         47.77787        41.66252        -0.32586
C         46.51540        42.39271        -0.47298
C         47.78902        44.53243        -0.34602
C         46.50642        43.83877        -0.41326
C         47.75506        46.05882        -0.16637
C         46.45813        46.73233        -0.02220
C         47.65290        48.76993         0.67405
C         46.45101        48.11481         0.37617
C         47.63858        50.16973         1.22531
C         46.37839        50.94098         0.91813
C         47.63000        53.06350         1.04832
C         46.38812        52.31710         1.03796
C         47.58108        54.44712         1.08044
C         46.34904        55.16322         1.04846
C         50.10034        20.24881        -0.98978
C         48.86407        20.93512        -0.85437
C         50.11723        23.06489        -0.89592
C         48.87511        22.35651        -0.81548
C         50.12793        24.49459        -0.85839
C         48.89137        25.20866        -0.73383
C         50.14286        27.34460        -0.78386
C         48.90980        26.64047        -0.66657
C         50.13300        28.76047        -0.81167
C         48.94128        29.48888        -0.57882
C         50.14817        31.67308        -0.69474
C         48.95153        30.94656        -0.52951
C         50.17347        33.08048        -0.62120
C         48.96737        33.79650        -0.48307
C         50.20985        35.94575        -0.37877
C         48.97518        35.23450        -0.44241
C         50.20640        37.36542        -0.21426
C         48.98388        38.08239        -0.28749
C         50.21284        40.20541         0.07004
C         48.99379        39.51692        -0.20254
C         50.20349        41.62887         0.16811
C         48.99472        42.35301        -0.03751
C         50.16519        44.45815         0.44380
C         49.01196        43.78781         0.04892
C         50.11188        45.90658         0.74666
C         48.93852        46.70796         0.39659
C         50.15331        48.78980         0.89110
C         48.90256        48.06465         0.71365
C         50.13743        50.22934         0.83003
C         48.90909        50.93614         0.92991
C         50.12421        53.03075         0.73797
C         48.89567        52.33973         0.90714
C         51.29573        20.93017        -1.06638
C         52.59881        23.05921        -1.06248
C         51.34317        22.34621        -1.01394
C         52.61054        24.47710        -0.99438
C         51.36941        25.20197        -0.91299
C         52.63429        27.32806        -0.88715
C         51.38274        26.62142        -0.88700
C         52.66445        28.74067        -0.89489
C         51.39703        29.46655        -1.07487
C         52.68668        31.64468        -0.70832
C         51.40973        30.96898        -1.01406
C         52.69813        33.04313        -0.56813
C         51.45387        33.81993        -0.95321
C         52.65125        35.93939        -0.28872
C         51.45198        35.25386        -0.47167
C         52.66300        37.34004         0.01316
C         51.43912        38.06187        -0.00384
C         52.65170        40.16599         0.50013
C         51.43360        39.47658         0.19497
C         52.61134        41.59057         0.67623
C         51.42833        42.31960         0.46240
C         52.62416        44.46594         0.78355
C         51.41479        43.76154         0.61496
C         52.69555        45.90806         1.24101
C         51.37785        46.65253         1.12120
C         52.61652        48.79439         0.68362
C         51.37725        48.10954         0.90738
C         52.60510        50.20430         0.53845
C         51.36358        50.93475         0.66992
C         51.31897        52.35070         0.62372
C         55.04046        23.05238        -1.17507
C         53.84024        22.37536        -1.16803
C         55.09165        24.46773        -1.06925
C         53.85851        25.17989        -0.99288
C         55.10179        27.31288        -0.86284
C         53.86871        26.60632        -0.90175
C         55.11373        28.73896        -0.71972
C         53.88330        29.45458        -0.75952
C         55.10400        31.57460        -0.33555
C         53.88391        30.89396        -0.61853
C         55.11549        32.99327        -0.16126
C         53.90727        33.71277        -0.31026
C         55.17602        35.90598         0.03944
C         53.92760        35.19527        -0.35533
C         55.12753        37.34475         0.33432
C         53.88511        38.04301         0.31322
C         55.15191        40.05938         1.10408
C         53.86782        39.44005         0.56884
C         55.16998        41.58930         1.07833
C         53.85100        42.32774         0.97490
C         55.09464        44.47008         0.65616
C         53.86888        43.78126         0.74964
C         55.07908        45.91748         0.51111
C         53.88647        46.64027         0.67648
C         55.05304        48.75651         0.22422
C         53.85128        48.05717         0.53717
C         55.00376        50.17324         0.09214
C         53.82992        50.87076         0.25061
C         57.60775        24.48138        -0.99747
C         56.34238        25.18848        -1.05815
C         57.58490        27.35726        -1.06158
C         56.32962        26.59055        -0.97719
C         57.61180        28.75114        -0.58489
C         56.34510        29.44339        -0.48145
C         57.52484        31.51437         0.23730
C         56.31285        30.82496        -0.21861
C         57.53498        32.98626         0.28946
C         56.36542        33.67952         0.13149
C         57.63190        35.86792         0.30740
C         56.34837        35.12166         0.61279
C         57.61139        37.28481         0.22354
C         56.37581        38.02244         0.39002
C         57.59384        40.15713         0.34788
C         56.39722        39.42402         0.53961
C         57.57986        41.60443         0.36716
C         56.38077        42.32653         0.66133
C         57.53994        44.45649         0.20918
C         56.33406        43.73814         0.53165
C         57.51510        45.88260         0.06776
C         56.29311        46.61495         0.20674
C         57.51522        48.69881        -0.21689
C         56.28645        48.02901         0.06851
C         58.80690        25.11302        -0.92532
C         60.10213        27.28460        -0.59511
C         58.91285        26.56989        -1.06268
C         60.06486        28.62553        -0.36322
C         58.83412        29.37869        -0.34396
C         60.06438        31.61612         0.13288
C         58.85242        30.76249         0.18766
C         60.03827        32.92245         0.44174
C         58.78662        33.69649         0.78896
C         60.03580        35.87677         0.12248
C         58.83646        35.15704         0.32222
C         60.03046        37.25726        -0.01468
C         58.82876        38.00233         0.07854
C         59.97573        40.20131        -0.20496
C         58.80372        39.45119         0.06104
C         59.96003        41.57980        -0.20567
C         58.77457        42.31500         0.06847
C         59.95204        44.49581        -0.24486
C         58.76154        43.75781         0.02206
C         59.93477        45.86544        -0.35363
C         58.71718        46.58492        -0.21516
C         58.68971        48.00213        -0.35390
O         58.33616        27.11222        -2.29386
O         38.64584        42.06438        -2.24933
O         41.47210        18.49663         2.25865
O         48.00967        45.44604        -1.48641
O         54.89735        35.66026        -1.38424
O         34.67375        41.93873        -2.46106
O         51.37746        30.29034        -2.31904
O         54.50759        42.07563         2.29359
O         46.06102        39.87788        -2.13847
O         39.71075        48.63617        -1.86667
O         56.25736        35.04864         2.02412
O         58.11579        30.89069         1.43970
O         24.25942        43.40633        -2.84252
O         38.33574        33.39784        -1.71931
O         31.09627        27.32451         2.72811
O         50.47158        46.19715         2.17465
O         41.06800        21.53221        -0.95132
O         28.36340        24.99635         2.84062
O         26.36348        39.52674        -2.78258
O         39.60130        44.02325         0.83706
O         55.17610        39.65360         2.51040
H         54.72414        40.37421         3.01239
O         52.97725        45.81905         2.67495
H         52.11134        45.65478         3.11580
O         47.60785        49.99040         2.69258
H         47.40443        50.86412         3.09008
O         37.87804        37.55405         1.60924
H         37.06812        37.08334         1.94169
O         39.17517        17.78448         3.10354
H         40.13208        17.75956         3.34621
O         39.38187        25.45512         2.62018
H         38.63766        25.97755         2.98969
O         37.65741        50.52353        -2.00419
H         38.40450        50.00748        -2.39689
O         25.06092        36.26610         1.27325
H         25.71491        36.91999         1.60325
O         51.48397        33.90824        -2.41780
H         51.50427        32.99246        -2.77113
O         44.04429        42.47423        -2.53637
H         44.93986        42.73641        -2.84024
O         58.65778        33.78299         2.23133
H         57.77069        34.22913         2.39886
O         39.45000        22.65114         2.80692
H         39.47128        23.62551         2.99211
O         46.68102        29.50154         1.63504
H         45.89777        29.95856         2.01020
O         44.98211        52.94806         2.82650
H         45.66364        53.54343         3.20583
O         26.42346        33.94354         1.81831
H         25.70606        34.61745         1.93160
O         32.93416        37.68315         1.69657
H         32.09987        37.32528         2.07082
O         44.91224        23.13570        -2.32046
H         44.01627        23.50272        -2.48130
O         35.44865        49.91761         1.88813
H         34.63090        49.46734         2.19094
O         35.45451        36.19991         1.86696
H         34.65773        36.73403         2.11556
O         31.40711        51.08333        -1.63643
H         32.20923        51.55825        -1.94184
H         22.23320        26.74023        -0.35483
H         22.23737        29.16813        -0.71679
H         22.27338        31.01087        -1.06830
H         22.25364        33.41894        -1.28100
H         22.23258        35.26568        -1.43805
H         22.16320        37.66920        -1.67455
H         22.08116        39.58335        -1.76843
H         22.19043        41.90499        -2.65317
H         22.14647        44.68766        -2.09481
H         22.07992        46.59654        -0.45289
H         25.43030        23.51143         1.04292
H         23.38941        24.67926         0.29257
H         25.45047        49.38400         1.35709
H         23.31507        48.26164         0.85341
H         27.12291        22.55952         0.96480
H         27.03493        50.47355         1.08528
H         29.23225        21.41954         1.18066
H         29.06533        51.78582         0.78690
H         32.88845        19.28558         1.70837
H         30.79678        20.49972         1.75875
H         32.70835        53.98781         0.96940
H         30.63060        52.86090         0.50928
H         34.49671        18.35130         1.70397
H         34.35087        54.93246         1.04856
H         36.60101        17.12867         1.76110
H         36.41994        56.17359         1.00418
H         40.11939        15.00593         0.24680
H         38.14610        16.14847         1.04506
H         40.13414        58.40595         1.00893
H         38.02052        57.17694         0.79413
H         42.54661        14.94094        -0.23877
H         42.59445        58.42742         1.16493
H         44.68828        16.10081        -0.58675
H         44.74703        57.22711         1.21041
H         48.49385        18.21975        -0.85493
H         46.39509        17.02846        -0.58970
H         48.50606        55.03776         1.06062
H         46.40582        56.25669         0.95556
H         50.12183        19.15230        -1.03195
H         50.13953        54.12783         0.69993
H         52.22164        20.34932        -1.16551
H         52.24344        52.93096         0.50632
H         55.96695        22.47112        -1.26753
H         53.86064        21.28067        -1.24643
H         55.91634        50.73561        -0.14355
H         53.84720        51.96191         0.13174
H         57.59301        23.38648        -0.91100
H         57.53378        49.79056        -0.32859
H         59.72494        24.53615        -0.73785
H         61.02351        26.71376        -0.40785
H         60.98459        29.13111        -0.03671
H         61.02107        31.14782        -0.14523
H         60.99352        33.46800         0.43951
H         61.00369        35.35711         0.10394
H         60.99236        37.77309        -0.13852
H         60.91794        39.68590        -0.43265
H         60.89389        42.10826        -0.43558
H         60.90863        43.97191        -0.36586
H         60.86313        46.41761        -0.55827
H         59.62712        48.53352        -0.57240
