         294
 CSIRO Nanostructure Databank - Neutral Graphene Oxide Data Set
C          1.78429         2.42935        -1.87083
C          1.70120         3.77947        -1.64540
C          2.91598         1.67035        -1.49275
C          2.85242         4.58109        -1.10904
C          1.27735         6.50431        -0.43323
C          1.27799         7.84483        -0.39598
C          2.46179         5.65288        -0.04635
C          2.49371         8.62934        -0.08573
C          1.12859        10.79257         0.55426
C          1.12058        12.13326         0.63227
C          2.41421        10.08321         0.27917
C          2.33604        12.91373         0.17429
C          1.10584        15.15487         0.36075
C          1.08447        16.54477         0.35573
C          2.32419        14.41211         0.45222
C          2.26972        17.29372         0.46884
C          2.30560        18.70052         0.31984
C          3.98158         2.26306        -0.76875
C          3.94855         3.70274        -0.51652
C          5.01196         1.48707        -0.25442
C          4.93512         4.29633         0.20850
C          3.69436         6.47725         0.27683
C          3.68941         7.85166         0.32773
C          4.93107         5.73930         0.43706
C          4.85282         8.56126         0.89568
C          3.58225        10.76882         0.97777
C          3.63287        12.23285         0.58862
C          4.90775        10.05126         0.82344
C          4.81215        12.89696         0.53981
C          3.51484        15.09355         0.60995
C          3.56101        16.59682         0.81770
C          4.80020        14.37577         0.64891
C          4.70183        17.18160        -0.06474
C          3.50174        19.38730         0.15778
C          4.74116        18.70217        -0.02420
C          6.04181         1.98300         0.72458
C          6.08158         3.55117         0.88400
C          7.37921         1.37956         0.34930
C          7.40734         4.14243         0.28408
C          6.13502         6.38071         0.64865
C          6.15264         7.78627         1.06421
C          7.40496         5.66939         0.36789
C          7.45578         8.58488         1.25189
C          6.08930        10.71493         0.73703
C          6.11536        12.15881         0.24594
C          7.37189         9.94285         0.48175
C          7.38081        12.94635         0.69546
C          6.09206        15.13672         0.55610
C          6.08904        16.64997         0.36320
C          7.34017        14.38071         0.07894
C          7.19408        17.17406        -0.57879
C          5.93357        19.36537        -0.23601
C          7.18764        18.68905        -0.49720
C          8.59448         2.01553         0.49178
C          8.58343         3.42425         1.05454
C          9.81381         1.37216         0.16308
C          9.93791         4.17531         0.97137
C          8.68469         6.40781         0.53170
C          8.73090         7.86157         0.82997
C          9.95470         5.65375         0.73938
C          9.91779         8.51201         0.63453
C          8.68409        10.74508         0.79613
C          8.67295        12.20899         0.23188
C          9.90658         9.98539         0.24279
C          9.95102        12.96361         0.68669
C          8.59316        15.22390         0.43979
C          8.56188        16.56123        -0.30374
C          9.90704        14.45035         0.27978
C          9.67090        17.17428        -0.85702
C          8.32794        19.36376        -0.78939
C          9.62676        18.70043        -1.18401
C         11.07442         1.98220         0.26359
C         11.24749         3.37954         0.83290
C         12.23893         1.27302        -0.03124
C         12.37214         4.12240         0.09935
C         11.17753         6.37312         0.31662
C         11.15384         7.76704         0.30645
C         12.21408         5.55590        -0.41693
C         12.36806         8.48568         0.05179
C         11.19545        10.74030         0.52695
C         11.18865        12.20685         0.19422
C         12.43923         9.94411         0.29257
C         12.22391        12.79217        -0.46580
C         11.01538        15.06548        -0.49452
C         10.90296        16.44249        -1.04030
C         12.14551        14.19494        -0.94792
C         12.12476        16.98647        -1.48753
C         10.75949        19.35893        -0.40434
C         12.08159        19.07550        -0.73911
C         13.51757         1.92726        -0.08858
C         13.49008         3.39891        -0.17963
C         14.68143         1.19816        -0.22585
C         14.77694         4.09360        -0.56308
C         13.56424         6.33079        -0.69995
C         13.58142         7.79899        -0.25967
C         14.74704         5.55944        -0.06528
C         14.80243         8.46503        -0.30219
C         13.58373        10.62086        -0.39576
C         13.45031        12.02345        -0.87530
C         14.93520         9.97267        -0.19107
C         14.70389        12.75378        -1.41477
C         13.42674        14.90374        -1.32829
C         13.37127        16.36560        -1.35463
C         14.73664        14.22723        -0.98170
C         14.57737        17.20213        -1.18264
C         13.26845        19.24747        -0.02721
C         14.48873        18.35127        -0.14334
C         16.02409         1.84205        -0.48799
C         15.94259         3.30508         0.08956
C         17.25395         0.98257        -0.14498
C         17.22440         4.10527        -0.00304
C         16.07042         6.23857        -0.35803
C         16.11287         7.73687        -0.15501
C         17.22872         5.52112        -0.36887
C         17.28229         8.35410        -0.96603
C         16.00916        10.54275        -1.18481
C         16.02924        12.05794        -1.09868
C         17.34497         9.87234        -0.91958
C         17.19015        12.76561        -0.99457
C         15.99103        14.97205        -1.54093
C         15.92496        16.47762        -1.20526
C         17.21812        14.24398        -0.96597
C         17.07560        17.13011        -0.57287
C         15.75810        19.14035        -0.11430
C         17.00032        18.51038        -0.22001
C         18.33493         1.40287         0.56317
C         18.30695         3.62160         0.65632
C         19.74172         1.02233         0.47243
C         19.64804         4.22000         0.71563
C         18.58200         6.16954        -0.62290
C         18.53998         7.67475        -0.47143
C         19.74077         5.63606         0.21358
C         19.83345         8.39387        -0.41204
C         18.51059        10.56133        -0.86203
C         18.55342        12.07284        -1.08640
C         19.82506         9.87095        -0.68062
C         19.53920        12.73544        -0.10398
C         18.32542        14.92257        -0.54688
C         18.34742        16.41024        -0.52199
C         19.66983        14.24350        -0.30923
C         19.54887        17.15656         0.07482
C         18.18460        19.22241         0.21332
C         19.36494        18.57383         0.47501
C         20.79124         1.89591         0.58813
C         20.84426         3.35520         0.67440
C         22.05388         3.99940         0.48256
C         21.08022         6.20214        -0.04413
C         21.19263         7.67148        -0.44860
C         22.16813         5.40445         0.19590
C         22.10945         8.43968         0.49641
C         20.98057        10.59115        -0.03938
C         20.76815        12.02159         0.35367
C         21.99192         9.76648         0.67571
C         21.93607        12.85078         0.73709
C         20.48852        14.88173         0.85098
C         20.62386        16.39130         0.74326
C         21.82240        14.17005         0.95100
C         21.55843        17.07472         1.46390
C         20.46831        19.23258         1.13036
C         21.53731        18.51098         1.57200
O         12.21537        18.31225        -1.92976
O          6.15584        12.00284        -1.17830
O         19.57744         5.36911         1.64103
O          6.04880         3.88801         2.23269
O         19.05076        12.33347        -2.37824
O         10.98568        15.14248         1.01420
O         12.02558        10.35354         1.64735
O         19.57101        12.20274         1.24126
O          8.09785         6.22339        -0.82316
O          2.72770         9.71187        -1.09244
O         13.17144        10.88635        -1.77335
O         19.05284         8.13280         0.80621
O         15.44306        17.35241        -2.31349
O          5.24063         8.00921         2.20646
O         12.54469        14.31546        -2.34110
O         10.04963         5.10078         2.11147
O         19.40938        16.98455        -1.36875
O         18.14027         2.47866         1.45543
O         20.93508        10.35150        -1.49382
O          5.60295        14.78940         1.86904
O          6.88659        16.84230        -1.96147
H          7.63834        17.13816        -2.51899
O         17.11276         7.95166        -2.34638
H         16.41488         8.54543        -2.73058
O         16.42563         7.90152         1.26820
H         15.82150         7.29406         1.75812
O         14.47883        17.52810         1.10589
H         14.45886        18.14515         1.86939
O         15.35272        10.33348         1.13914
H         15.96804         9.63099         1.47242
O          7.35312        13.00226         2.12805
H          7.92380        13.75210         2.42441
O          7.28783        14.31828        -1.34153
H          6.69354        13.54622        -1.58953
O          8.75274        12.19998        -1.18742
H          7.83252        12.01804        -1.53282
O         11.73994         3.15997         2.17925
H         11.54450         3.97704         2.69305
O          9.89547         9.91123        -1.19768
H          8.97131         9.67399        -1.47334
O         14.83108        14.24724         0.46153
H         14.75915        15.17567         0.77755
O         10.02397        12.99277         2.12521
H         10.85025        13.46954         2.35912
O         13.72797         6.44898        -2.12702
H         14.22354         5.65441        -2.45213
O          9.74684        18.89818        -2.60500
H         10.69423        18.75427        -2.84316
O         20.42125        14.38297        -1.52334
H         20.00425        13.73671        -2.17485
O         18.93634         5.85592        -1.99282
H         18.33743         6.38396        -2.57196
O          8.25602         3.30378         2.43338
H          8.44651         4.16096         2.87734
O          8.88206        10.79617         2.20134
H          8.25524        11.45746         2.58172
O          7.29594         9.62063        -0.92904
H          6.79717        10.38872        -1.34838
O         14.52504         5.62259         1.36284
H         14.89753         4.79019         1.75893
O          2.09141         4.90813         1.14005
H          2.17847         5.49636         1.91844
O         21.73082         7.73745        -1.78175
H         21.72569         8.69036        -2.04547
O         15.58535         3.17257         1.48707
H         16.37196         2.79607         1.95244
O         16.16379         1.91912        -1.95199
H         15.99124         1.02508        -2.31513
O          6.37302        17.24314         1.65203
H          7.13086        16.73817         2.04201
O         16.06046        14.90130        -2.96215
H         15.80885        13.99531        -3.25721
O         19.75217        14.70045         2.08497
H         19.62208        13.72532         2.20560
O          5.66686         1.43771         2.00814
H          5.72497         2.22927         2.62174
O         14.59217        12.72048        -2.85713
H         14.09243        11.89823        -3.08233
O         14.94435         4.17543        -1.99064
H         15.26064         3.30063        -2.33127
O          8.50108        15.52276         1.86933
H          9.41485        15.76425         2.15192
O         15.60834        10.16518        -2.53422
H         16.11558        10.73205        -3.15544
O          7.49219         3.77055        -1.09100
H          7.80284         4.56317        -1.59324
O          7.58974         8.79563         2.66404
H          6.69089         8.70262         3.06107
O          4.35190        16.75273        -1.38780
H          5.13988        16.85617        -1.97752
O          3.24868        10.74281         2.39858
H          3.97940        11.17517         2.88905
O         11.54065         5.36234        -1.69737
H         12.06112         5.90026        -2.35302
O          2.32401        12.82572        -1.28713
H          2.56640        11.90556        -1.53674
O          3.39005         5.32390        -2.23634
H          3.68006         4.68218        -2.91744
O          3.78478        16.86354         2.21653
H          4.67148        16.48709         2.44624
H          0.94257         1.91045        -2.35336
H          0.81117         4.32637        -1.99083
H          2.93990         0.59072        -1.69925
H          0.34188         5.97490        -0.67149
H          0.36951         8.40571        -0.66301
H          0.22567        10.20753         0.78881
H          0.19110        12.66302         0.89063
H          0.15907        14.61338         0.22300
H          0.13135        17.06954         0.19089
H          1.35646        19.25746         0.29234
H          5.00299         0.40345        -0.46028
H          3.49027        20.48635         0.09002
H          7.37132         0.34118        -0.02309
H          5.94651        20.46785        -0.21480
H          9.76709         0.33512        -0.20679
H          8.31883        20.46515        -0.81157
H         12.17640         0.20179        -0.27869
H         10.52979        19.84700         0.55353
H         14.62187         0.09798        -0.22404
H         13.24486        19.86825         0.88287
H         17.40381         0.13869        -0.83943
H         15.71769        20.21413         0.12374
H         19.97807        -0.02785         0.24023
H         18.07631        20.28430         0.48025
H         21.79051         1.44064         0.47759
H         22.97748         3.40082         0.45852
H         23.18058         5.81039         0.05516
H         22.88741         7.88498         1.04281
H         22.66114        10.28199         1.38174
H         22.91872        12.36024         0.80404
H         22.72065        14.74630         1.21675
H         22.34676        16.53697         2.00904
H         20.41114        20.31811         1.29633
H         22.36571        19.01057         2.09324
