         634
 CSIRO Nanostructure Databank - Neutral Graphene Oxide Data Set
C         23.22312        69.91839         1.76101
C         23.18329        71.32549         1.63852
C         21.95321        72.04159         1.67906
C         23.11828        74.14477         1.36175
C         21.93484        73.42769         1.54560
C         25.68304        65.66173         1.55855
C         25.68496        67.07399         1.61672
C         24.48800        67.79843         1.81227
C         25.66969        69.95385         1.59175
C         24.45011        69.22151         1.73379
C         25.65064        71.35202         1.43790
C         24.40396        72.04872         1.45654
C         25.57500        74.17867         1.09650
C         24.36941        73.47427         1.30871
C         27.93700        61.30990         1.03692
C         28.05160        62.82072         1.03623
C         26.88682        63.52465         1.27469
C         28.08134        65.65263         1.00975
C         26.86609        64.94830         1.29485
C         28.09273        67.09119         1.12100
C         26.93278        67.77475         1.45200
C         28.18418        69.96218         1.27198
C         26.97555        69.23742         1.81338
C         28.11601        71.40702         1.09989
C         26.88007        72.08293         1.21029
C         27.99844        74.22467         0.70303
C         26.82035        73.50964         1.00921
C         30.36374        57.11223        -0.08609
C         30.38302        58.48405         0.00930
C         29.11208        59.29638        -0.01442
C         30.45441        61.36983         0.38660
C         29.26904        60.54682         0.86909
C         30.48256        62.76139         0.44933
C         29.27023        63.51409         0.74310
C         30.44110        65.69011         0.16038
C         29.24968        64.92578         0.68731
C         30.50154        67.10251         0.67242
C         29.36547        67.80754         0.99408
C         30.66325        70.01830         0.92962
C         29.35645        69.26815         1.09178
C         30.50430        71.44855         0.45704
C         29.28116        72.13180         0.70515
C         30.41628        74.26627         0.19884
C         29.23015        73.55850         0.51828
C         32.68166        52.64037        -0.06768
C         32.68004        54.13867        -0.32960
C         31.53626        54.88766        -0.30198
C         32.77220        57.01820        -0.43355
C         31.57229        56.33995        -0.30384
C         32.91381        58.45307         0.00759
C         31.61775        59.22745        -0.00505
C         32.95786        61.35442        -0.05632
C         31.64000        60.61797         0.06753
C         32.82006        62.83071        -0.35650
C         31.70626        63.48432         0.08966
C         32.96432        65.70598        -0.08368
C         31.75661        64.95638         0.43776
C         32.99544        67.04994         0.02417
C         31.84492        67.79372         0.67798
C         32.88559        69.91778        -0.35539
C         31.61666        69.17475         0.04519
C         32.85596        71.43440        -0.36903
C         31.63161        72.15028         0.05213
C         32.86213        74.27563        -0.21469
C         31.63405        73.58886        -0.01984
C         35.29405        48.41207        -0.50457
C         35.26625        49.82465        -0.45048
C         34.03491        50.54410        -0.39916
C         35.24125        52.64163        -0.30856
C         34.00960        51.93066        -0.31750
C         35.21232        54.11205        -0.22059
C         33.95715        54.79783        -0.64251
C         35.30926        57.02858        -0.73239
C         34.00414        56.31002        -0.77456
C         35.30429        58.45712        -0.88343
C         33.99287        59.14521        -0.80003
C         35.23023        61.32749        -1.29157
C         33.95596        60.61831        -0.92953
C         35.21869        62.82532        -1.34431
C         33.93569        63.61626        -1.05866
C         35.34806        65.71926        -0.93655
C         34.23913        64.91501        -0.29560
C         35.38803        67.07720        -0.82040
C         34.32249        67.78825        -0.01525
C         35.30101        69.99561        -0.72644
C         34.19458        69.25136        -0.37869
C         35.28466        71.43485        -0.68872
C         34.13642        72.14291        -0.39460
C         35.32962        74.27716        -0.26062
C         34.11711        73.60368        -0.28300
C         37.72121        44.07119        -0.66400
C         37.74066        45.57692        -0.51756
C         36.54840        46.27449        -0.54749
C         37.75029        48.42325        -0.45149
C         36.50974        47.70499        -0.49951
C         37.74150        49.84463        -0.41410
C         36.50363        50.54807        -0.40581
C         37.73276        52.71318        -0.32916
C         36.48266        51.97450        -0.34257
C         37.75242        54.12500        -0.33056
C         36.49641        54.88599        -0.24113
C         37.76416        57.00038        -0.66371
C         36.50212        56.31910        -0.62437
C         37.78856        58.45619        -1.10888
C         36.48410        59.19336        -0.94510
C         37.72640        61.35319        -1.16347
C         36.51983        60.62197        -1.10371
C         37.69994        62.80371        -1.37010
C         36.52699        63.52641        -1.33738
C         37.76194        65.74517        -1.69381
C         36.42303        64.99820        -1.72514
C         37.78341        67.18303        -1.33799
C         36.58021        67.84105        -1.14873
C         37.83278        70.01535        -0.94561
C         36.53316        69.33657        -1.29941
C         37.83637        71.39555        -0.77393
C         36.56155        72.19757        -0.97239
C         37.85432        74.24857        -0.37155
C         36.59526        73.47798        -0.12876
C         40.28723        39.87766         0.14932
C         40.24397        41.33976         0.49086
C         39.01131        42.05731         0.01748
C         40.24543        44.15597        -0.21866
C         39.00861        43.39019        -0.24665
C         40.23166        45.56127        -0.36121
C         38.98571        46.28168        -0.44391
C         40.22321        48.42476        -0.40956
C         38.98410        47.70127        -0.43463
C         40.21088        49.84921        -0.37820
C         38.98117        50.57178        -0.37315
C         40.21119        52.72379        -0.32131
C         38.97131        51.99731        -0.34372
C         40.20632        54.16959        -0.32339
C         38.96779        54.85942        -0.34600
C         40.18672        57.06882        -0.01112
C         38.94276        56.30801        -0.42229
C         40.26696        58.48700        -0.64709
C         38.93273        59.23956        -0.45760
C         40.20913        61.35585        -0.89833
C         38.98940        60.68667        -0.92032
C         40.28664        62.75937        -1.37246
C         39.00091        63.48782        -1.64201
C         40.30560        65.70018        -1.31408
C         39.05620        64.99020        -1.68853
C         40.28463        67.12724        -1.21371
C         39.05456        67.86311        -1.23305
C         40.29118        69.96869        -0.81593
C         39.05621        69.27338        -0.99232
C         40.28986        71.40231        -0.64827
C         39.06437        72.10473        -0.62473
C         40.29357        74.25522        -0.52608
C         39.05688        73.56064        -0.51440
C         42.76312        35.62530        -0.16179
C         42.72250        37.05778         0.00352
C         41.53015        37.75798        -0.03387
C         42.74577        39.91768         0.13155
C         41.48529        39.19391         0.09153
C         42.74245        41.35216         0.11553
C         41.51465        42.06143         0.12182
C         42.72748        44.17888        -0.19235
C         41.49074        43.45794        -0.08302
C         42.71333        45.59426        -0.33777
C         41.47017        46.29077        -0.38013
C         42.70350        48.43092        -0.45975
C         41.45956        47.71374        -0.42451
C         42.69014        49.85264        -0.37771
C         41.45094        50.56781        -0.33060
C         42.70390        52.70210        -0.31993
C         41.41638        51.98730        -0.28702
C         42.70528        54.19196        -0.39123
C         41.43210        54.93123        -0.32777
C         42.70804        57.07776        -0.26931
C         41.47228        56.31670        -0.23494
C         42.72529        58.50140        -0.29471
C         41.44770        59.28578        -0.06639
C         42.65953        61.38408        -0.74247
C         41.46169        60.70243        -0.60892
C         42.72556        62.82455        -0.93372
C         41.53029        63.53747        -1.13392
C         42.75360        65.68183        -0.97732
C         41.50953        64.97137        -1.13986
C         42.77345        67.10274        -0.97436
C         41.51927        67.84021        -1.01035
C         42.78966        69.94343        -0.47631
C         41.50490        69.23886        -0.84020
C         42.77190        71.44310        -0.67329
C         41.52940        72.12929        -0.60227
C         42.75397        74.27323        -0.50415
C         41.52176        73.56684        -0.56383
C         45.22458        32.84169        -0.36900
C         44.00634        33.51101        -0.33477
C         45.19331        35.59623         0.43002
C         43.94396        34.91336        -0.08192
C         45.20006        37.08260         0.18619
C         43.98186        37.77658         0.11394
C         45.21269        39.91980         0.08105
C         43.96793        39.20892         0.10092
C         45.22320        41.33971         0.05260
C         43.97970        42.06682         0.04075
C         45.19898        44.21966        -0.16644
C         43.96506        43.48446        -0.08536
C         45.19895        45.58321        -0.38534
C         43.95441        46.31415        -0.44592
C         45.21696        48.49103        -0.75391
C         43.93714        47.71780        -0.52331
C         45.14763        49.87858        -0.18981
C         43.94897        50.53650        -0.16037
C         45.17068        52.71070        -0.15614
C         43.90440        51.98492         0.26582
C         45.20544        54.18798         0.03644
C         43.93727        54.94721        -0.02804
C         45.18619        57.07675        -0.36417
C         43.95813        56.39992        -0.29530
C         45.19526        58.50310        -0.45176
C         43.93742        59.18069        -0.45411
C         45.23733        61.35554        -0.76485
C         43.92296        60.61641        -0.77667
C         45.21343        62.82283        -0.66498
C         43.98219        63.52227        -0.83442
C         45.21457        65.67242        -0.89367
C         43.98381        64.96284        -0.87989
C         45.24220        67.08037        -1.01253
C         44.02044        67.78549        -0.98532
C         45.26428        70.03785        -1.21082
C         43.99302        69.26683        -1.09095
C         45.30556        71.54722        -1.04111
C         43.96264        72.16353        -0.71703
C         45.23610        74.26388        -0.40373
C         43.97244        73.59010        -0.55604
C         46.44670        33.52579        -0.22708
C         47.67268        35.63938         0.03709
C         46.48004        34.91195         0.02298
C         47.68763        37.06014         0.14834
C         46.43414        37.77648         0.16337
C         47.67984        39.91004         0.03888
C         46.44470        39.20265         0.09648
C         47.67393        41.32372        -0.04216
C         46.46708        42.02765        -0.00375
C         47.74477        44.21483        -0.08674
C         46.46075        43.50903         0.25722
C         47.74124        45.59842        -0.22721
C         46.49694        46.29893        -0.70307
C         47.68394        48.44517        -0.15892
C         46.47397        47.75693        -0.35974
C         47.69405        49.85897         0.04224
C         46.39819        50.55340         0.33085
C         47.71612        52.73859         0.14158
C         46.46468        51.99172        -0.11691
C         47.70230        54.15377         0.12494
C         46.47783        54.87310        -0.38787
C         47.60607        57.03060         0.04862
C         46.44112        56.36080        -0.15788
C         47.72992        58.43939        -0.44945
C         46.43497        59.21845        -0.41609
C         47.68566        61.35645        -0.28614
C         46.48111        60.62192        -0.44645
C         47.68236        62.77121        -0.34383
C         46.45010        63.47913        -0.55848
C         47.79112        65.64820        -0.64050
C         46.48003        64.91344        -0.86861
C         47.76770        67.11414        -0.54244
C         46.55586        67.79779        -1.07314
C         47.72904        70.02268        -0.52684
C         46.57271        69.30775        -1.11767
C         47.67050        71.34099        -0.16065
C         46.34298        72.05491        -0.03775
C         47.66340        74.22670        -0.06319
C         46.42508        73.56837        -0.18455
C         48.89938        37.78076         0.16603
C         50.15275        39.91237         0.24745
C         48.93008        39.18930         0.13229
C         50.20547        41.30809         0.14839
C         48.97269        42.03115        -0.34263
C         50.19364        44.19737         0.03141
C         48.96725        43.50562        -0.03562
C         50.20627        45.62119         0.02238
C         48.96672        46.33239        -0.15709
C         50.22736        48.51944        -0.21070
C         48.94135        47.73794        -0.14076
C         50.12327        49.89802         0.37420
C         48.90544        50.56587         0.32112
C         50.07828        52.74226         0.74727
C         48.88412        52.02640         0.47612
C         50.05796        54.17245         0.75472
C         48.85061        54.86552         0.46114
C         50.06002        57.06246         0.67591
C         48.74946        56.34142         0.74608
C         50.05553        58.48718         0.50640
C         48.92001        59.18124         0.08568
C         50.13097        61.37412         0.36185
C         49.01363        60.62801        -0.31332
C         50.10344        62.78853         0.34554
C         48.91239        63.50149        -0.08023
C         50.09911        65.65297         0.27491
C         48.93929        64.90379        -0.10529
C         50.10383        67.07072         0.21513
C         48.91563        67.78976        -0.21109
C         50.00724        69.90922         0.49802
C         49.05122        69.27564        -0.51096
C         50.09146        71.39950         0.31252
C         48.89143        72.08477         0.12907
C         50.12147        74.21099         0.18005
C         48.88566        73.52737         0.09703
C         51.39584        42.04409         0.30485
C         52.63312        44.18745         0.36555
C         51.43340        43.46028         0.20958
C         52.65196        45.59746         0.37434
C         51.43028        46.33308         0.19717
C         52.63893        48.44995         0.50915
C         51.44784        47.75406         0.23785
C         52.62373        49.87888         0.78041
C         51.28884        50.52219         1.09117
C         52.45605        52.71896         1.36024
C         51.31463        52.03764         1.00829
C         52.42571        54.19076         1.51991
C         51.23229        54.92031         1.06261
C         52.47787        57.07416         1.14126
C         51.23426        56.34778         0.99897
C         52.47808        58.50225         1.03032
C         51.28351        59.21606         0.75905
C         52.48853        61.32292         1.13307
C         51.29250        60.63869         0.74366
C         52.43162        62.79252         1.24817
C         51.25889        63.52490         0.72873
C         52.50487        65.67023         0.84737
C         51.29258        64.94026         0.64697
C         52.52831        67.06610         0.78171
C         51.31170        67.78899         0.52129
C         52.54200        69.92523         0.64583
C         51.33425        69.20149         0.51947
C         52.54590        71.36081         0.56561
C         51.32985        72.08359         0.40794
C         52.59482        74.19816         0.29345
C         51.34186        73.52095         0.30278
C         53.86506        46.33704         0.53387
C         55.18764        48.43621         0.78856
C         53.86942        47.71710         0.60854
C         55.08437        49.94266         0.91771
C         53.78766        50.57790         1.03250
C         55.03745        52.75570         1.69650
C         53.74045        51.98912         1.52229
C         55.07904        54.29613         1.93913
C         53.71836        54.97315         1.70677
C         54.92087        57.09252         1.12242
C         53.69885        56.39449         1.30447
C         54.93553        58.49126         1.19151
C         53.70065        59.21138         1.22288
C         54.95002        61.32428         1.79916
C         53.68488        60.63205         1.32985
C         54.99768        62.78883         1.44289
C         53.73082        63.53065         1.40721
C         54.94004        65.67395         1.58615
C         53.81961        64.93208         0.85600
C         54.98952        67.12898         1.18866
C         53.77792        67.80057         0.93295
C         55.00413        69.94773         0.93960
C         53.77927        69.22329         0.81538
C         54.98437        71.37096         0.84864
C         53.78764        72.06573         0.63332
C         55.05549        74.17109         0.27906
C         53.80027        73.50865         0.43418
C         56.23986        50.67682         0.94994
C         57.41926        52.81823         0.94904
C         56.28042        52.10704         1.18348
C         57.55614        54.27417         1.33796
C         56.22208        54.94293         1.21984
C         57.41307        57.08911         0.75701
C         56.12219        56.32026         0.64000
C         57.41987        58.48057         0.92691
C         56.19385        59.22152         1.17272
C         57.45345        61.32536         1.38201
C         56.21409        60.58993         1.40151
C         57.44165        62.72623         1.50195
C         56.20594        63.48214         1.44089
C         57.45378        65.63871         1.40007
C         56.24740        64.92712         1.42376
C         57.46334        67.08539         1.31813
C         56.22418        67.82565         1.22476
C         57.49813        69.95997         1.07410
C         56.23817        69.24127         1.10012
C         57.50106        71.34518         0.95110
C         56.23951        72.14784         1.13819
C         57.50318        74.13776         0.20300
C         56.26893        73.51255         0.47918
C         58.68342        54.98743         0.65469
C         59.83287        57.13232         0.26755
C         58.65182        56.38069         0.53808
C         59.84705        58.53251         0.39740
C         58.64818        59.20964         0.81806
C         59.89948        61.30243         0.90120
C         58.67987        60.60905         1.07277
C         60.01925        62.68514         1.32822
C         58.68275        63.47668         1.65683
C         59.93799        65.59636         1.36082
C         58.70817        64.92748         1.46835
C         59.92702        67.04008         1.16556
C         58.68912        67.76989         1.19363
C         59.96216        69.84910         0.78591
C         58.73738        69.20113         1.04025
C         60.05828        71.30618         0.79581
C         58.75128        72.10312         0.90673
C         59.96283        74.07037         0.01880
C         58.74158        73.48237         0.36943
C         61.01602        59.29572         0.10124
C         62.19564        61.48866        -0.03372
C         61.04808        60.67471         0.32199
C         62.25291        62.84391         0.20259
C         61.16513        63.48036         0.90971
C         62.42595        65.56091         0.99086
C         61.16120        64.84668         1.18479
C         62.34796        67.00316         0.69997
C         61.08907        67.71974         0.80186
C         62.38992        69.74423         0.13266
C         61.16690        69.11779         0.54999
C         62.36835        71.14035        -0.11888
C         61.23187        71.92143         0.17119
C         62.37247        74.00239        -0.44508
C         61.18508        73.34411        -0.07563
C         63.33780        63.70626        -0.44334
C         64.31823        66.15712        -0.43558
C         63.68273        64.95784         0.38368
C         65.57581        66.81389        -0.00545
C         63.33592        67.46254        -0.33608
C         64.92148        69.70786        -0.54092
C         63.73286        68.94835         0.10614
C         64.85071        71.09582        -0.72206
C         63.51186        71.79063        -0.87444
C         64.75302        73.97990        -0.90807
C         63.56904        73.29360        -0.68170
C         66.19771        67.59550        -0.95734
C         67.33960        69.80488        -1.02937
C         66.20271        69.06883        -0.74989
C         67.29585        71.21877        -1.10088
C         66.02968        71.86128        -0.98810
C         67.17069        74.01652        -1.33754
C         65.98844        73.29399        -1.10348
C         68.46999        71.98056        -1.34983
C         68.40280        73.35992        -1.46720
O         38.49336        65.51940        -2.95285
O         45.78688        52.24288        -1.40340
O         59.63087        71.92554         2.06770
O         44.57305        54.61659         1.27210
O         44.64690        60.88812        -2.03538
O         46.87903        68.52945        -2.32097
O         33.95851        55.42316        -1.96492
O         59.57031        62.96167         2.68356
O         52.88242        63.31878         2.57677
O         39.75289        62.89675        -2.74890
O         35.75632        54.64822         1.03643
O         54.41463        52.09320         2.83903
O         33.44785        59.78021        -2.00879
O         42.92726        53.37380        -1.60559
O         35.09800        62.02505        -2.58107
O         47.38303        65.21239        -1.99240
O         52.85270        54.69327         2.85961
O         62.85156        66.54254         1.99696
O         32.63855        70.65365        -1.61382
O         44.45329        69.73123        -2.39858
O         48.36821        56.41762         2.18061
H         49.09232        56.00305         2.69795
O         50.44974        48.73393        -1.67386
H         50.34136        47.86257        -2.11299
O         46.42533        43.60115         1.73830
H         45.61418        43.13808         2.03981
O         33.60505        61.34071         1.26431
H         32.96883        61.70838         1.91310
O         30.28191        65.80154        -1.28457
H         30.46117        66.73486        -1.54328
O         37.45280        43.75287        -2.04805
H         38.17210        44.13577        -2.59128
O         35.97499        64.98866        -3.10419
H         36.78138        64.86150        -3.65738
O         43.78334        52.03556         1.70144
H         44.58552        51.60052         2.08045
O         63.17150        71.60136        -2.29741
H         62.39223        72.16613        -2.48709
O         31.94333        64.98117         1.90212
H         32.83046        64.57777         2.06179
O         48.02056        58.26392        -1.90764
H         47.27260        57.75740        -2.29607
O         55.87516        56.15369        -0.82983
H         55.89983        57.04858        -1.23231
O         33.38235        64.02225        -2.32483
H         33.70129        63.38486        -3.00419
O         55.34754        54.44460         3.36858
H         54.61704        53.96356         3.82654
O         33.38907        58.41838         1.38895
H         32.66696        58.05805         1.94539
O         49.39195        69.67957         1.80763
H         50.01642        69.99966         2.49208
O         29.65108        60.04761         2.18414
H         29.81924        60.81840         2.76515
O         54.88905        61.30765         3.26952
H         54.16441        61.92846         3.52093
O         46.60699        46.24746        -2.17960
H         46.05426        46.99256        -2.53089
O         31.23101        70.21279         2.25263
H         31.35778        69.32629         2.66638
O         64.56208        64.53154         1.42199
H         64.57297        65.24794         2.09676
O         38.62416        59.29493         0.96265
H         39.39972        59.73109         1.39924
O         31.62828        52.01489        -0.80738
H         31.76201        52.21140        -1.75717
O         56.07880        48.08871        -0.28664
H         55.65857        48.35674        -1.12939
O         26.96400        60.92525         0.05728
H         27.41821        60.80417        -0.80886
O         45.13676        35.44679         1.89798
H         45.14048        34.48401         2.08611
O         32.24193        67.84709         2.09552
H         32.14322        66.91175         2.41181
O         49.62270        69.36646        -1.83499
H         48.93781        69.03503        -2.46189
O         62.84338        64.13729        -1.71858
H         62.56609        63.34858        -2.22772
O         64.11990        68.86330         1.50122
H         64.07381        69.76186         1.88856
O         36.65448        73.00933         1.27088
H         36.66420        73.80119         1.84867
O         56.20206        72.41811         2.59136
H         57.08505        72.76389         2.84599
O         27.15694        69.25827         3.28569
H         27.21918        70.19964         3.55535
O         51.05464        50.22888         2.52078
H         51.77239        50.66256         3.03167
O         57.95411        54.28682         2.76199
H         57.11323        54.26132         3.29052
O         40.05848        57.16193         1.44795
H         39.19193        57.60562         1.62716
O         45.30506        48.65629        -2.23831
H         45.85361        49.45189        -2.41462
O         40.17627        41.38595         1.97812
H         40.95039        40.88509         2.31425
O         38.01676        58.42870        -2.55505
H         37.21140        58.07149        -2.98627
O         34.69306        64.55788         1.05157
H         35.00745        65.39422         1.46756
O         28.86286        59.69241        -1.37947
H         29.69851        60.04382        -1.75379
O         36.53137        72.56091        -2.37394
H         36.40441        71.72358        -2.87876
O         54.60691        65.64939         3.00349
H         55.33724        66.07951         3.49523
O         62.63933        67.57944        -1.57776
H         63.22375        68.02422        -2.22619
O         42.96692        69.73590         0.96621
H         42.24931        70.21796         1.42881
O         45.83061        71.75369         1.28744
H         46.50478        72.02706         1.94384
O         49.40530        60.60866        -1.74112
H         48.89187        59.87634        -2.16712
O         36.37719        69.58076        -2.75742
H         37.01938        69.00319        -3.22466
O         34.82957        67.72592         1.36752
H         34.09087        68.03757         1.94899
O         49.07478        41.97867        -1.81696
H         49.94146        42.36766        -2.06213
O         40.59559        58.33612        -2.03468
H         39.76694        58.22811        -2.56057
O         30.90680        68.86191        -1.18155
H         31.17204        69.55114        -1.84002
O         65.83050        66.92642         1.30345
H         66.49490        67.63052         1.44563
O         46.53211        54.78617        -1.84787
H         46.34260        53.84388        -2.09064
O         46.25358        50.62579         1.80088
H         46.47028        49.74266         2.16937
O         45.71406        72.07339        -2.32751
H         45.22407        71.56544        -3.01239
O         41.29362        59.45346         1.37549
H         41.18641        58.54192         1.75700
O         54.20677        64.77292        -0.53666
H         54.21244        65.65944        -0.95566
H         23.09042        75.23825         1.25199
H         25.54448        75.26994         0.95942
H         27.94587        75.31470         0.56552
H         30.38669        75.36417         0.13926
H         32.85602        75.37608        -0.21137
H         35.35794        75.37463        -0.17676
H         37.85986        75.34538        -0.27197
H         40.29207        75.35378        -0.46874
H         42.73963        75.36761        -0.39471
H         45.24981        75.36495        -0.41936
H         47.69005        75.32505        -0.13833
H         50.12864        75.30973         0.12235
H         52.60937        75.28874         0.14828
H         55.05939        75.21832        -0.06107
H         57.49737        75.15974        -0.20711
H         59.96915        75.12516        -0.29550
H         62.38278        75.10143        -0.50287
H         64.75183        75.08074        -0.88842
H         67.12189        75.11220        -1.41650
H         22.28447        69.35725         1.87934
H         21.01456        71.48647         1.81781
H         20.97615        73.96422         1.58150
H         24.74370        65.11361         1.72384
H         23.54354        67.24832         1.93774
H         27.51168        61.00314         2.03198
H         25.95320        62.97337         1.45771
H         29.40011        56.58128        -0.06987
H         28.23923        58.68972         0.32323
H         32.43445        52.47981         1.02002
H         30.56808        54.39491        -0.12610
H         34.34555        47.85587        -0.54111
H         33.08685        49.98645        -0.39068
H         36.86657        43.64732        -0.07805
H         35.59878        45.72258        -0.61348
H         39.33997        39.31731         0.12736
H         38.06754        41.49123        -0.01654
H         41.82634        35.10116        -0.40838
H         40.58010        37.21156        -0.13161
H         45.24034        31.76372        -0.58358
H         43.07686        32.96882        -0.56326
H         47.39122        32.98359        -0.38200
H         48.62707        35.11185        -0.11712
H         49.84899        37.22542         0.19699
H         51.07974        39.35092         0.44275
H         52.32462        41.50837         0.55515
H         53.57775        43.63967         0.50194
H         54.81584        45.78938         0.61365
H         55.67493        48.04820         1.72508
H         57.19878        50.15930         0.79584
H         58.30651        52.29717         0.55588
H         59.64018        54.45557         0.54091
H         60.76253        56.59932         0.01945
H         61.90359        58.78244        -0.29699
H         63.02441        60.99646        -0.56678
H         64.26543        63.08562        -0.59260
H         64.38279        65.88528        -1.50938
H         65.86062        67.36450        -1.98888
H         68.28966        69.28531        -1.21728
H         69.43276        71.45918        -1.45014
H         69.31445        73.94345        -1.65714
