         404
 CSIRO Nanostructure Databank - Neutral Graphene Oxide Data Set
C          1.61041         1.89909         1.04927
C          1.60573         3.32575         1.23305
C          2.77268         1.20820         0.85248
C          2.76429         4.04723         1.32475
C          1.61034         6.21944         1.92814
C          1.66323         7.55604         2.24819
C          2.77796         5.50458         1.48170
C          2.80502         8.36956         1.96505
C          2.08203        10.14534         3.49683
C          2.33771        11.31288         4.18093
C          2.94362         9.68742         2.45937
C          3.45747        12.11779         3.84946
C          2.36893        15.12568         4.42776
C          2.19718        16.42168         3.95808
C          3.51037        14.39830         4.05581
C          3.22595        17.03451         3.21249
C          3.14526        18.42784         2.86995
C          4.03724         1.89576         0.83544
C          4.08948         3.31542         1.34901
C          5.20228         1.27652         0.45784
C          5.23148         4.09918         0.74343
C          3.93157         6.23108         1.22487
C          3.87707         7.71244         1.18843
C          5.21580         5.55135         0.96937
C          5.11622         8.51442         0.82154
C          4.03829        10.59289         2.02478
C          4.31155        11.84567         2.78243
C          5.19122         9.96439         1.19129
C          5.46154        12.67244         2.44311
C          4.48124        14.89129         3.16294
C          4.38525        16.28481         2.84676
C          5.57119        14.07435         2.62176
C          5.50205        16.97102         2.27794
C          4.20896        19.07980         2.31563
C          5.44280        18.38568         2.06374
C          6.43173         2.01034         0.25731
C          6.38747         3.46853         0.32806
C          7.60875         1.36366        -0.06417
C          7.55334         4.22292        -0.12628
C          6.42490         6.34149         0.50630
C          6.38445         7.81992         0.51794
C          7.51403         5.63212        -0.16800
C          7.54970         8.52585         0.37093
C          6.51329        10.58574         1.29641
C          6.62710        11.92305         1.90662
C          7.64674         9.91357         0.79150
C          7.89666        12.69530         1.58801
C          6.72727        14.81379         2.12226
C          6.70544        16.25673         2.02647
C          7.88172        14.16423         1.65364
C          7.87015        16.98162         1.64895
C          6.59061        19.08067         1.65899
C          7.82170        18.40763         1.48863
C          8.79271         2.09232        -0.43164
C          8.70969         3.50562        -0.54447
C          9.99973         1.41719        -0.73153
C          9.86333         4.22102        -1.10993
C          8.60550         6.43761        -0.73865
C          8.69198         7.91043        -0.34672
C          9.85766         5.73753        -1.18274
C          9.99063         8.57850        -0.35066
C          8.89301        10.57232         0.59774
C          8.88529        12.03481         0.69786
C         10.04433         9.92080         0.04727
C         10.16355        12.79063         0.43964
C          9.07652        14.88013         1.30727
C          9.10788        16.31429         1.40893
C         10.23924        14.19272         0.88142
C         10.31722        17.04450         1.21546
C          8.99785        19.10650         1.12310
C         10.26096        18.48976         1.02925
C         11.18769         2.09754        -1.09173
C         11.16217         3.54466        -1.18975
C         12.39072         1.40780        -1.35738
C         12.29239         4.28310        -1.49729
C         11.14908         6.44178        -1.16204
C         11.13563         7.95816        -1.13134
C         12.32308         5.73634        -1.42017
C         12.47172         8.53777        -0.73901
C         11.30935        10.64862        -0.04165
C         11.38271        11.99154         0.27535
C         12.52692         9.88839        -0.32615
C         12.66169        12.71582         0.40270
C         11.45907        14.88204         0.72207
C         11.51609        16.28247         1.00697
C         12.65750        14.18876         0.36462
C         12.80428        16.85362         1.04257
C         11.35160        19.29972         0.54867
C         12.70792        18.96469         0.70339
C         13.55282         2.08771        -1.78440
C         13.48439         3.55339        -1.96123
C         14.76532         1.43268        -2.03399
C         14.78310         4.32403        -2.11772
C         13.61832         6.41735        -1.41679
C         13.66383         7.81503        -0.98923
C         14.81044         5.72891        -1.66308
C         14.91720         8.40413        -0.68195
C         13.78468        10.49847        -0.12334
C         13.92522        11.97437         0.04403
C         14.93041         9.67762        -0.08018
C         15.00011        12.77733        -0.60337
C         13.87302        14.86541         0.17654
C         13.94076        16.28161         0.43044
C         15.04079        14.17148        -0.31640
C         15.08901        17.07376         0.08968
C         13.86310        19.32638        -0.00045
C         15.06983        18.52864        -0.00623
C         15.98340         2.13739        -2.25954
C         16.03615         3.55613        -2.18767
C         17.21267         1.44342        -2.43614
C         17.25895         4.25251        -2.27042
C         16.10668         6.34227        -1.56750
C         16.23954         7.75775        -1.03667
C         17.25331         5.67062        -1.98789
C         17.00958         8.55663        -2.22113
C         15.95347        10.88127        -2.04659
C         16.02751        12.21957        -1.43628
C         17.09562        10.07788        -2.11431
C         17.24159        12.92950        -1.52623
C         16.20958        14.94516        -0.58315
C         16.25091        16.37082        -0.37012
C         17.35664        14.27407        -1.08714
C         17.45947        17.07095        -0.63852
C         16.27232        19.18960        -0.32765
C         17.49398        18.50549        -0.54777
C         18.41544         2.11932        -2.57723
C         18.47994         3.54416        -2.53096
C         19.66334         1.31309        -2.83241
C         19.73337         4.23729        -2.77740
C         18.52553         6.40307        -2.20930
C         18.39525         7.90170        -2.35141
C         19.66849         5.68834        -2.86157
C         19.48404         8.63360        -3.05522
C         18.30772        10.83109        -2.50143
C         18.39121        12.30209        -2.20187
C         19.54643        10.12620        -2.94872
C         19.73023        12.90039        -2.05557
C         18.59457        14.97294        -1.25723
C         18.65127        16.36911        -1.00203
C         19.78121        14.26814        -1.64107
C         19.88867        17.06912        -1.13065
C         18.71612        19.19193        -0.73551
C         19.93069        18.50166        -0.98396
C         20.91436         2.06668        -2.46610
C         20.95912         3.48882        -2.72948
C         21.99950         1.37405        -1.97523
C         22.27904         4.07900        -2.67857
C         20.66085         6.48024        -3.43226
C         20.74500         7.91267        -3.29054
C         22.55720         5.35860        -3.23029
C         21.88490         8.68243        -3.49905
C         20.85875        10.79031        -2.81320
C         20.90122        12.14962        -2.34604
C         22.04031        10.04447        -3.02482
C         22.18870        12.74734        -2.16822
C         21.01923        14.94159        -1.58409
C         21.08850        16.34293        -1.36399
C         22.23939        14.12754        -1.64651
C         22.34481        17.04343        -1.43878
C         21.16851        19.17573        -1.11214
C         22.38437        18.47596        -1.33592
C         23.24785         2.02016        -1.67195
C         23.36753         3.39422        -2.05839
C         24.32674         1.35751        -1.06440
C         24.59924         4.07615        -1.80201
C         23.64863         6.13762        -2.82528
C         23.77298         7.53786        -3.11583
C         24.67014         5.50512        -2.03371
C         24.58740         8.39404        -2.38680
C         23.34651        10.60848        -2.69151
C         23.37489        12.02298        -2.37177
C         24.53144         9.84608        -2.43048
C         24.65009        12.71264        -2.26873
C         23.55679        14.85816        -1.61397
C         23.55570        16.33720        -1.62789
C         24.73652        14.11544        -2.07402
C         24.77728        17.01620        -1.71625
C         23.63434        19.14595        -1.44907
C         24.84301        18.44453        -1.63741
C         25.55572         2.02707        -0.79007
C         25.65913         3.40695        -1.17148
C         26.68313         1.38389        -0.22054
C         26.91809         4.11459        -0.93337
C         25.67955         6.28224        -1.48681
C         25.55877         7.74753        -1.47848
C         26.91694         5.64237        -1.05125
C         26.80675         8.52857        -1.08975
C         25.77242        10.53599        -2.10764
C         25.85441        11.97304        -2.27644
C         26.91586         9.86697        -1.66255
C         27.10159        12.66078        -2.24759
C         25.96727        14.79525        -2.16334
C         26.01592        16.22949        -1.78079
C         27.14990        14.07223        -2.37032
C         27.32370        16.96092        -1.90545
C         26.11253        19.11741        -1.79257
C         27.31602        18.44736        -2.00951
C         27.89170         2.07825         0.10060
C         27.96846         3.49598        -0.12170
C         29.04749         1.43218         0.58449
C         29.05692         4.26478         0.32483
C         27.95084         6.39627        -0.32384
C         27.98419         7.82202        -0.52562
C         29.00726         5.71489         0.27254
C         29.11558         8.54368        -0.21380
C         28.22644        10.53775        -1.59935
C         28.30395        11.98663        -1.85301
C         29.32389         9.87360        -0.80500
C         29.48663        12.69882        -1.60667
C         28.46109        14.72074        -2.76053
C         28.44375        16.23057        -2.52240
C         29.66651        14.02091        -2.10381
C         29.47831        16.99113        -2.96141
C         28.56725        19.10807        -2.24471
C         29.71653        18.38087        -2.61641
C         30.23562         2.16057         0.86928
C         30.22043         3.60069         0.84222
C         31.45112         1.50885         1.17069
C         31.36634         4.32641         1.26766
C         30.04526         6.48875         0.97386
C         30.14604         7.98700         0.66691
C         31.26270         5.78375         1.48712
C         31.44586         8.70096         0.81791
C         30.38232        10.72139        -0.18750
C         30.51393        12.12585        -0.69269
C         31.53175        10.03492         0.43439
C         31.84031        12.76795        -0.59238
C         30.95282        14.60906        -2.01371
C         31.27309        15.85401        -2.63496
C         32.01892        14.02153        -1.22808
C         32.29381        16.69852        -2.20857
C         31.05580        18.88572        -2.60235
C         32.26031        18.14085        -2.42738
C         32.63620         2.23310         1.43158
C         32.58494         3.67179         1.54421
C         33.87418         1.55886         1.56718
C         33.78930         4.40910         1.86292
C         32.54862         6.59320         1.70297
C         32.59539         8.02331         1.33701
C         33.81149         5.84537         1.82537
C         33.84570         8.71675         1.38663
C         32.65470        10.90339         0.94158
C         32.87424        12.16611         0.13314
C         33.92188        10.11503         1.14771
C         34.13185        12.82731         0.23854
C         33.27214        14.68986        -1.11146
C         33.40961        16.06379        -1.57013
C         34.32513        14.07065        -0.41360
C         34.60535        16.76057        -1.44037
C         33.48455        18.82313        -2.19675
C         34.65436        18.16723        -1.74908
C         35.06101         2.26256         1.84715
C         34.99207         3.67763         2.04791
C         36.31512         1.58345         1.97239
C         36.19764         4.35965         2.50719
C         35.01400         6.59653         1.90265
C         35.04829         7.98975         1.67333
C         36.22512         5.92449         2.40042
C         36.33168         8.72935         1.69127
C         35.13484        10.84145         1.32114
C         35.19923        12.21119         0.97974
C         36.33089        10.20572         1.80428
C         36.36174        12.99601         1.40373
C         35.73822        14.58566        -0.55025
C         35.83096        16.03297        -1.05252
C         36.56713        14.35521         0.71115
C         37.04664        16.84039        -0.71696
C         35.85440        18.89511        -1.48898
C         36.99231        18.31157        -0.91686
C         37.50898         2.26397         2.23456
C         37.48790         3.67843         2.46873
C         38.77749         1.58697         2.32648
C         38.67377         4.40056         2.68948
C         37.52282         6.56125         2.35057
C         37.61630         7.98630         1.98725
C         38.67663         5.84648         2.70022
C         38.71926         8.74456         2.61455
C         37.46278        10.93063         2.26053
C         37.49195        12.36673         2.10815
C         38.57323        10.14012         2.84979
C         38.58780        13.25447         2.44676
C         37.87893        15.02198         0.82083
C         38.06849        16.27563         0.20028
C         38.81221        14.51970         1.77243
C         39.17983        17.08750         0.52840
C         38.15045        19.04562        -0.60324
C         39.25553        18.44783         0.04829
C         39.92673         2.27442         2.60494
C         39.92516         3.70313         2.76773
C         41.10656         4.43370         2.96820
C         39.90019         6.55658         2.93909
C         39.81920         8.00804         3.13247
C         41.08736         5.83177         3.08572
C         40.78414         8.66605         3.91872
C         39.47002        10.68419         3.79533
C         39.48878        12.96075         3.49950
C         40.57734         9.98788         4.29344
C         40.62146        13.72214         3.78768
C         39.99169        15.29356         2.04647
C         40.19748        16.57763         1.39397
C         40.89551        14.85821         3.03348
C         41.34025        17.36653         1.62037
C         40.42243        19.20351         0.32643
C         41.45607        18.65024         1.06792
O         29.35109         9.81716        -2.27472
O          9.58048         4.93756        -2.38001
O         39.20043        11.92252         4.38890
O          4.09001         8.23347        -0.18812
O          3.72498        13.17682         4.72352
O         30.48602        16.32937        -3.69464
O         23.00862        14.26606        -0.38246
O         29.55745         7.48479         1.91308
O          4.15572        10.77899         0.57568
O         13.91885         4.04808        -3.27617
O         29.88996        11.84352         0.64307
O         35.99330         5.21864         3.66488
O         27.47448         4.78968        -2.11874
O          9.12405        12.65260        -0.60840
O         18.96149         7.31731        -1.14048
O          8.23365         7.47611        -1.71041
O         31.63087         6.22968         2.81461
O         13.63340        12.29814         1.45518
O         25.65199         8.38518        -0.16584
O         18.02408        11.85250        -3.55987
O         36.92711        16.14988        -2.03276
O         19.18297         9.44921        -4.22892
O         21.66736         5.85940        -4.19175
O         22.98178         8.07859        -4.13446
O         26.89132        16.44357        -0.60165
O         37.27037         8.29643         0.59672
O         35.88425        14.29748         1.97495
O          7.77699        12.00035         2.86191
O         12.95997        18.03717         1.74839
O          6.27013         5.92890         1.94877
O         28.56097        14.49675        -4.19825
H         29.37305        14.96839        -4.50049
O         14.76339        10.45687        -2.51364
H         14.89366         9.57912        -2.95309
O         19.72483         0.97050        -4.23545
H         19.76539         1.80397        -4.74851
O         16.07409        10.17507         0.49779
H         15.85773        11.00581         0.97132
O         10.88883         8.35967        -2.52350
H          9.97907         8.04792        -2.74632
O         16.23948         8.25328        -3.41845
H         16.71752         8.64258        -4.18423
O         17.00744         7.68375         0.16486
H         17.05515         8.57905         0.56517
O          4.42957         3.21722         2.78023
H          5.32799         2.82828         2.84287
O         32.20264        11.36670         2.27001
H         31.29770        11.73885         2.13818
O         36.34339        13.72822        -1.55821
H         36.87088        14.31866        -2.15086
H          0.64559         1.37371         1.02095
H          0.63034         3.83220         1.26433
H          2.75395         0.12891         0.64035
H          0.68702         5.66213         2.13554
H          0.76982         8.01878         2.68964
H          1.23689         9.52144         3.81495
H          1.70912        11.61034         5.02992
H          1.63826        14.67030         5.10867
H          1.30670        17.00230         4.23697
H          2.21807        18.97104         3.10371
H          5.19391         0.20501         0.20369
H          4.15299        20.15513         2.09347
H          7.64012         0.26397        -0.07797
H          6.54363        20.16970         1.51084
H         10.02031         0.31929        -0.66349
H          8.92502        20.18973         0.94269
H         12.41860         0.31314        -1.24928
H         11.08862        20.21826         0.00199
H         14.80064         0.33439        -1.97464
H         13.86177        20.23905        -0.61523
H         17.20528         0.34405        -2.47589
H         16.26878        20.28820        -0.38512
H         19.61561         0.34500        -2.27395
H         18.72891        20.28979        -0.66191
H         21.90459         0.29381        -1.78565
H         21.19152        20.27217        -1.01955
H         24.22218         0.29668        -0.79207
H         23.65559        20.24334        -1.36961
H         26.62906         0.30497        -0.01234
H         26.10775        20.21815        -1.80769
H         29.05356         0.33785         0.69526
H         28.63858        20.19061        -2.05971
H         31.49113         0.40956         1.15252
H         31.16046        19.97951        -2.50869
H         33.90743         0.46648         1.44307
H         33.52201        19.91277        -2.34788
H         36.33474         0.49186         1.83933
H         35.86499        19.97625        -1.69417
H         38.80514         0.49826         2.17359
H         38.19113        20.11815        -0.84460
H         40.88576         1.74020         2.67607
H         42.06499         3.89929         3.03887
H         42.03483         6.36000         3.26307
H         41.64117         8.11179         4.32363
H         41.24517        10.48175         5.01072
H         41.27050        13.43058         4.62300
H         41.79220        15.44466         3.26884
H         42.16430        16.99324         2.24209
H         40.49648        20.23414        -0.04821
H         42.36387        19.23796         1.26368
