         651
 CSIRO Nanostructure Databank - Neutral Graphene Oxide Data Set
C          6.66890        32.20693        -2.20450
C          6.70027        33.54411        -2.03012
C          8.99698        27.84763        -1.92441
C          8.82600        29.17955        -1.45218
C          7.68187        29.91608        -1.78677
C          8.81751        31.96743        -0.95990
C          7.44999        31.31010        -1.26963
C          8.67619        33.40494        -0.51207
C          7.59912        34.18779        -1.07411
C          8.46328        36.21528         0.01051
C          7.50714        35.54647        -0.81436
C          8.46223        37.59648         0.19916
C         11.68096        23.74633        -2.67587
C         11.55333        25.12558        -2.04857
C         10.34720        25.80258        -2.18937
C         11.22956        27.70982        -0.90132
C         10.17582        27.12103        -1.67375
C         11.02131        29.01367        -0.35181
C          9.87295        29.74422        -0.62783
C         10.91934        31.80411         0.42415
C          9.64476        31.10379         0.00286
C         10.87109        33.25093         0.62471
C          9.65352        33.98649         0.26987
C         10.78916        36.17498         1.14171
C          9.51611        35.40510         0.63928
C         10.83494        37.59436         0.85825
C          9.64004        38.30276         0.60719
C         10.85367        40.45875         0.89453
C          9.67886        39.73488         0.61087
C         10.86186        41.86390         0.93536
C         13.77215        19.30523        -1.80221
C         13.79357        20.67851        -1.66149
C         12.67599        21.50113        -2.09818
C         13.93574        23.53095        -1.52897
C         12.71692        22.85826        -2.02101
C         13.93509        25.02350        -1.32847
C         12.64759        25.75147        -1.39659
C         13.54528        27.61581        -0.00703
C         12.48496        27.02346        -0.75712
C         13.33604        28.84743         0.78270
C         12.03992        29.59466         0.55224
C         13.21902        31.69023         1.34459
C         12.02014        31.06084         0.75873
C         13.21506        33.18528         1.43729
C         12.00393        33.92250         1.02386
C         13.29779        36.07351         0.84534
C         12.05249        35.37594         1.43835
C         13.30795        37.55481         1.27002
C         12.14290        38.29860         0.56550
C         13.30585        40.40682         1.22246
C         12.13290        39.75092         0.99318
C         13.29059        41.84577         1.69363
C         12.04834        42.60020         1.22578
C         13.30912        44.70315         1.60746
C         12.06268        43.97447         1.20053
C         13.37846        46.17555         1.27809
C         15.80577        14.86014        -1.27772
C         15.67090        16.18171        -0.52291
C         14.68628        17.08440        -1.22966
C         16.08143        19.06381        -0.85352
C         14.82586        18.43396        -1.31987
C         16.07091        20.53214        -0.59900
C         14.89706        21.34904        -0.98286
C         15.81287        23.37020         0.23123
C         14.95975        22.70913        -0.84726
C         16.13480        24.82174        -0.01945
C         15.09944        25.64195        -0.61609
C         15.88159        27.46726         1.01351
C         14.88512        27.05808        -0.01378
C         15.75933        28.87447         1.56421
C         14.54644        29.62753         1.18979
C         15.73620        31.72103         1.72373
C         14.52257        30.98107         1.36418
C         15.72272        33.08784         1.86962
C         14.55030        33.86267         1.40412
C         15.78981        36.10568         1.66067
C         14.61049        35.33904         1.18078
C         15.85044        37.48235         1.50248
C         14.64829        38.21679         1.02454
C         15.86804        40.41016         1.45842
C         14.61897        39.71404         1.08582
C         15.85158        41.86370         1.39363
C         14.56500        42.57766         1.30246
C         15.76707        44.66253         0.73974
C         14.52779        43.92776         1.16365
C         15.86072        46.10378         1.23512
C         14.55250        46.83402         1.20450
C         15.79062        48.96982         0.52957
C         14.65833        48.32987         1.32472
C         15.67539        50.34718         0.48839
C         18.27875        10.65715        -1.65961
C         18.08306        11.87907        -0.93633
C         16.90641        12.55898        -1.24566
C         18.17685        14.71336         0.29812
C         16.47157        13.82084        -0.70233
C         18.21063        16.08335         0.07136
C         17.03054        16.85877        -0.23226
C         18.33252        18.91476         0.25169
C         17.14153        18.24113        -0.22737
C         18.33962        20.33112         0.50226
C         17.08023        21.08280         0.34419
C         18.32164        23.20276         0.98084
C         17.03185        22.54921         0.67311
C         18.36759        24.62314         1.03091
C         17.23665        25.41555         0.62592
C         18.30902        27.43366         1.56666
C         17.20955        26.81174         0.98942
C         18.18649        28.75143         2.33452
C         16.99621        29.58578         1.89886
C         18.24274        31.69747         1.88198
C         16.99811        30.97540         1.88465
C         18.19453        33.18866         1.59856
C         16.97706        33.80480         2.33868
C         18.27169        36.09149         2.12481
C         16.93935        35.35274         2.20676
C         18.27977        37.54037         1.83552
C         17.06345        38.24121         1.72941
C         18.26730        40.42790         2.12285
C         17.02525        39.69592         1.73266
C         18.25135        41.97278         2.14537
C         17.01253        42.57925         1.53134
C         18.19434        44.59704         0.65739
C         16.99979        44.07829         1.42522
C         18.18568        46.03830         0.30059
C         17.01336        46.81334         0.53576
C         18.11574        48.71041        -0.54374
C         16.94064        48.15977         0.11731
C         18.11727        49.97126        -1.18001
C         16.43939        51.22999        -0.34227
C         17.64123        53.29880        -0.95363
C         16.71645        52.56507        -0.12836
C         18.16852        54.54069        -0.71248
C         20.86698         7.13307        -3.85345
C         20.80981         8.19259        -2.76872
C         19.61282         8.83346        -2.57981
C         20.66648        10.49109        -1.05351
C         19.48511         9.98216        -1.73003
C         20.58039        11.68403        -0.33778
C         19.26413        12.37024        -0.14432
C         20.64756        14.55695        -0.05117
C         19.34622        13.85001         0.31417
C         20.67737        16.00687         0.37668
C         19.49655        16.74595         0.26059
C         20.69629        18.76399         1.01209
C         19.50417        18.15708         0.49480
C         20.60112        20.17260         1.47889
C         19.43333        20.98627         1.08381
C         20.71572        23.09030         1.60118
C         19.46667        22.41771         1.25316
C         20.75722        24.54321         1.67166
C         19.55609        25.29219         1.44466
C         20.75921        27.40380         1.85425
C         19.53644        26.70147         1.64200
C         20.76087        28.82553         1.95337
C         19.54101        29.57945         2.46374
C         20.68769        31.73750         1.83691
C         19.46804        31.02180         1.95507
C         20.72550        33.16966         1.79963
C         19.50489        33.91060         1.85497
C         20.75244        36.02860         1.86938
C         19.52242        35.30810         1.96357
C         20.73456        37.47116         1.87526
C         19.54739        38.20058         1.84694
C         20.85208        40.38324         1.78287
C         19.57642        39.67341         2.08541
C         20.85070        41.84408         1.51241
C         19.56292        42.62252         1.61740
C         20.71781        44.51523         0.32557
C         19.48576        43.83896         0.74152
C         20.54384        45.72601        -0.57430
C         19.35893        46.60719        -0.21934
C         20.56879        48.59303        -1.07744
C         19.35271        47.96999        -0.60446
C         20.55266        49.94550        -1.42355
C         19.31606        50.65195        -1.49868
C         20.49129        52.84468        -1.74941
C         19.31932        52.04650        -1.79599
C         20.43875        54.28115        -1.79873
C         19.32986        55.07752        -1.41269
C         20.51311        57.20525        -1.96563
C         19.40934        56.49898        -1.47933
C         20.60201        58.61075        -1.79734
C         23.50012         4.59323        -4.94204
C         22.31077         5.27776        -4.86068
C         23.25540         6.59591        -2.89205
C         22.05196         6.19487        -3.75477
C         23.22941         7.87456        -2.15461
C         21.97411         8.60215        -2.00631
C         23.06522        10.12533        -0.37241
C         21.88734         9.72057        -1.17099
C         23.08478        11.50231         0.25514
C         21.80300        12.29396         0.26094
C         23.18019        14.51904         0.20986
C         21.86593        13.78643         0.38968
C         23.13066        15.92096         0.77773
C         21.90545        16.63131         0.77041
C         23.07626        18.61431         1.85776
C         21.86276        18.02150         1.16180
C         23.13453        20.13986         1.70050
C         21.85236        20.88943         1.91670
C         23.11817        23.06316         2.24544
C         21.87258        22.36809         1.87112
C         23.20327        24.52283         2.11053
C         21.96672        25.23570         1.91094
C         23.20693        27.37966         1.92546
C         21.98079        26.67574         1.90294
C         23.19363        28.77465         1.76496
C         21.97228        29.50745         1.83769
C         23.17139        31.71217         1.53140
C         21.97970        30.99796         2.12342
C         23.23132        33.18052         1.64922
C         21.97574        33.89238         1.75756
C         23.23836        36.02989         1.51786
C         21.96784        35.30366         1.73260
C         23.31348        37.47757         1.89057
C         22.01243        38.21357         1.97163
C         23.20781        40.22601         0.99821
C         21.99492        39.65784         1.63996
C         23.18985        41.66141         0.55595
C         21.98063        42.45587         0.79918
C         23.15520        44.38758        -0.17289
C         21.93937        43.79742         0.35595
C         23.06144        45.69914        -0.82270
C         21.82707        46.49408        -0.75628
C         23.08064        48.54824        -1.28791
C         21.82869        47.83896        -1.08337
C         23.08518        49.95731        -1.72209
C         21.76059        50.69293        -1.82573
C         22.98858        52.86919        -1.82615
C         21.75558        52.16443        -1.77975
C         22.98308        54.27884        -2.09148
C         21.67035        54.94561        -2.29961
C         22.96844        57.15795        -2.68220
C         21.66198        56.44334        -2.49894
C         23.00288        58.66584        -2.49562
C         21.78330        59.34186        -1.99754
C         23.13372        61.35886        -1.65073
C         21.89526        60.70010        -1.63299
C         24.60820         4.92091        -4.12203
C         25.73511         6.56727        -2.68329
C         24.55896         5.99135        -3.22227
C         25.69140         7.72273        -1.88933
C         24.40947         8.33356        -1.59501
C         25.66674        10.18030        -0.31719
C         24.37451         9.44756        -0.63229
C         25.58200        11.60992         0.05023
C         24.38951        12.22330         0.32094
C         25.65255        14.43436         0.85188
C         24.35579        13.67935         0.69294
C         25.63703        15.90649         0.87781
C         24.37165        16.61122         1.02530
C         25.64993        18.63630         1.66187
C         24.36353        17.95266         1.41725
C         25.69649        20.09624         2.02812
C         24.42431        20.86133         1.87015
C         25.70715        23.04083         2.15693
C         24.44399        22.29753         2.29171
C         25.67689        24.43834         2.28274
C         24.43866        25.16750         2.24150
C         25.75267        27.32039         2.01930
C         24.45469        26.67806         2.42150
C         25.78956        28.71371         1.61032
C         24.47261        29.45842         1.46342
C         25.72260        31.69619         1.50796
C         24.46395        30.95479         1.37465
C         25.70453        33.07802         1.45348
C         24.46143        33.80893         1.47185
C         25.76660        36.04309         1.91716
C         24.53244        35.28201         1.37651
C         25.76604        37.47667         1.39330
C         24.56030        38.19674         1.49744
C         25.71280        40.26966         0.87604
C         24.51766        39.55736         1.15032
C         25.68122        41.68511         0.51140
C         24.47399        42.36550         0.36605
C         25.63861        44.46315        -0.24747
C         24.40588        43.74884        -0.04116
C         25.62828        45.83656        -0.57331
C         24.38539        46.47483        -1.00688
C         25.54849        48.68750        -1.08627
C         24.31483        47.93667        -1.09740
C         25.53659        50.08646        -1.26148
C         24.30001        50.76719        -1.53026
C         25.47583        52.92774        -1.45514
C         24.23211        52.15587        -1.63351
C         25.45796        54.40335        -1.75981
C         24.17877        55.03323        -2.16476
C         25.46144        57.13251        -2.50885
C         24.21687        56.41280        -2.48024
C         25.47433        58.56001        -2.46208
C         24.31471        59.31329        -2.28321
C         24.32235        60.68888        -1.93933
C         26.89921         8.38326        -1.50832
C         28.12929        10.33829        -0.66057
C         26.92594         9.63109        -0.88183
C         28.13086        11.67346        -0.22399
C         26.82496        12.43676        -0.21985
C         28.09373        14.46649         0.47868
C         26.90528        13.74431         0.52654
C         28.07826        15.88592         0.65870
C         26.85978        16.58532         0.84426
C         28.14949        18.71185         1.28482
C         26.82203        18.10681         0.83038
C         28.21229        20.11956         1.78913
C         26.94430        20.88679         1.90593
C         28.19410        22.98508         1.73761
C         26.93406        22.27200         1.95524
C         28.22868        24.44688         2.00477
C         26.97987        25.16974         2.41283
C         28.28436        27.37836         2.04648
C         27.00909        26.70524         2.54937
C         28.27086        28.84223         1.95079
C         27.03965        29.49137         1.79095
C         28.29164        31.73620         1.69830
C         26.96146        30.95093         1.83304
C         28.24635        33.11768         1.22342
C         26.94051        33.87218         1.08779
C         28.24667        35.95554         0.98499
C         27.12662        35.25422         1.76401
C         28.12300        37.39044         0.51578
C         26.94582        38.16375         1.05294
C         28.23571        40.33693         0.96550
C         26.93822        39.56395         0.90138
C         28.16699        41.70974         0.33743
C         26.92844        42.37546         0.24108
C         28.10732        44.46917        -0.26873
C         26.90090        43.77058        -0.08658
C         28.11621        45.97430        -0.21758
C         26.80819        46.62016        -0.58736
C         28.03977        48.74146        -0.96383
C         26.79177        47.99219        -0.88377
C         28.01548        50.14303        -1.10633
C         26.77960        50.83046        -1.25681
C         27.99515        52.95289        -1.67207
C         26.76500        52.22163        -1.45982
C         27.93192        54.33979        -2.04937
C         26.73670        55.05566        -2.13039
C         26.68842        56.42492        -2.46461
C         29.32752        12.38291        -0.05272
C         30.56799        14.48906         0.19672
C         29.35954        13.78146         0.19579
C         30.61523        15.90830         0.30428
C         29.32280        16.62337         0.37953
C         30.65729        18.78801         0.77816
C         29.35915        18.11563         0.64377
C         30.68223        20.17596         1.02920
C         29.54289        20.86107         1.78528
C         30.53746        23.07949         0.99582
C         29.36466        22.32731         1.48903
C         30.57336        24.53687         1.24228
C         29.45892        25.21169         1.67794
C         30.75036        27.37129         1.81362
C         29.44709        26.65932         1.86164
C         30.79459        28.87153         1.79470
C         29.50349        29.58907         1.79018
C         30.71469        31.66721         1.12845
C         29.51688        30.95692         1.51611
C         30.67280        33.05459         0.85622
C         29.42046        33.77684         0.92046
C         30.59516        35.88312         0.17300
C         29.35775        35.22426         0.66165
C         30.62159        37.39909         0.18617
C         29.42158        38.16249         0.54496
C         30.66447        40.27781         0.25565
C         29.46179        39.54747         0.55532
C         30.64188        41.69999         0.05352
C         29.37360        42.38674         0.03248
C         30.56982        44.44820        -0.61938
C         29.34912        43.77930        -0.28744
C         30.52575        45.82408        -1.14211
C         29.24272        46.59042        -1.00943
C         30.50949        48.73808        -1.34047
C         29.27414        48.05493        -1.05107
C         30.51245        50.12578        -1.38174
C         29.30141        50.91683        -0.97261
C         29.21463        52.29073        -1.56748
C         31.79700        16.63937         0.26738
C         33.05748        18.78232         0.35626
C         31.84586        18.07156         0.43423
C         33.07765        20.19870         0.43832
C         31.85672        20.88744         0.73707
C         33.05307        23.13606         0.20068
C         31.77524        22.35543         0.54737
C         33.17664        24.42689         1.01514
C         31.91729        25.16356         1.32180
C         33.19467        27.38125         0.96525
C         31.92368        26.64936         1.23287
C         33.21664        28.84911         1.11843
C         32.02097        29.56380         1.31828
C         33.16822        31.68143         0.79680
C         31.96831        30.96983         1.08050
C         33.15512        33.04845         0.45660
C         31.88555        33.76184         0.51253
C         33.20111        35.82961         0.31028
C         31.85662        35.13302         0.25280
C         33.17992        37.34319         0.07240
C         31.92009        38.12162         0.22789
C         33.08049        40.24663        -0.25225
C         31.89037        39.58694        -0.02046
C         33.18040        41.72840        -0.05361
C         31.83773        42.40444        -0.22121
C         33.02563        44.47179        -0.98875
C         31.80216        43.77617        -0.57611
C         32.99375        45.83689        -1.29965
C         31.78071        46.58863        -1.31325
C         31.72777        47.96487        -1.48823
C         34.29087        20.92637         0.27880
C         35.53395        23.04933         0.12083
C         34.34888        22.34315         0.24896
C         35.53861        24.55458        -0.02872
C         34.53815        25.14692         0.99455
C         35.64629        27.34470         0.65816
C         34.46896        26.65507         0.84831
C         35.65498        28.79466         0.67468
C         34.46040        29.50708         0.91084
C         35.71812        31.68753         0.44936
C         34.44934        30.97417         0.93273
C         35.56817        33.02579        -0.14876
C         34.35055        33.68558        -0.05121
C         35.57815        35.86394        -0.57555
C         34.23158        35.10726        -0.57299
C         35.46022        37.23605        -1.28304
C         34.22440        38.00237        -0.79032
C         35.51483        40.19292        -1.05529
C         34.22066        39.50064        -0.82298
C         35.47466        41.60497        -1.12036
C         34.31051        42.35940        -0.84186
C         34.22857        43.72149        -1.13949
C         36.86902        25.25496         0.17232
C         38.11738        27.37060         0.23351
C         36.89623        26.60752         0.39475
C         38.11045        28.74060         0.10864
C         36.86934        29.49078         0.31590
C         37.95537        31.48397        -0.73348
C         36.86184        30.85563         0.08605
C         37.97182        32.98611        -0.64183
C         36.78629        33.66512        -0.60851
C         38.01348        35.84739        -1.08154
C         36.71976        35.05227        -1.21130
C         37.94462        37.29439        -1.13863
C         36.75507        38.01484        -1.14117
C         36.69970        39.44202        -1.16037
C         39.31985        29.48609        -0.21349
C         40.45288        31.57142        -0.99366
C         39.29057        30.80971        -0.55561
C         40.43183        32.91855        -1.11344
C         39.28313        33.72499        -0.55967
C         39.20196        35.17939        -0.96350
O         18.89851        39.95437         3.36267
O         23.73786        45.78069        -2.11537
O         22.91672        58.06388        -3.83070
O         26.54534        18.52249        -0.48108
O         29.13462        17.61297        -0.70128
O          9.72514        35.74203         2.04684
O         32.66231        24.44604         2.38518
O         21.42194        55.54524        -3.63063
O         17.53740        35.92002         3.40779
O         25.77354        19.05413         3.05679
O         15.38919        27.68441         2.35498
O         16.91899        50.60320        -1.51148
O         15.53923        26.85056        -1.30427
O         12.98825        32.37456         2.63336
O         32.85091        37.95024         1.37737
O         16.58574        21.53941         1.65268
O         20.96552        20.30782         2.92121
O         28.29871        18.94757         2.70667
O         30.46840        36.65178        -1.10083
O         14.91542        34.41370         0.06401
O         25.50349        36.19100         3.28878
O         16.97700        14.07506         0.60921
O         22.24288         5.63368        -2.42386
O         25.09242         9.20651         0.61382
O         25.40745        53.93904        -0.36094
O         23.62223        31.30513         0.20456
O         21.67564        12.99597         1.56665
O         35.37181        31.61021         1.87324
O         16.69526        20.00189        -1.82339
O         25.13125        28.91489         0.26638
O         12.25181        28.81593         1.78230
O         22.43009        50.15275        -3.02278
O         31.04772        28.10098         3.04265
O         22.93789        40.55665        -0.42179
O         18.53325        43.65418        -0.42521
O         23.86917        35.81832         0.19758
O         32.21178        27.02883        -0.15346
O         22.87580        10.30628         1.06586
O         33.65939        38.69675        -1.94563
O         14.78839        38.96808        -0.21390
O         29.57465        45.95275        -2.27656
O         20.52270        42.72108         2.69361
O         27.64637        31.52519         2.99321
O         23.84047        20.64544         0.52675
O         22.77874        37.85014         3.18775
O         14.43138        24.45055        -2.59320
O         24.84245        13.90556         2.02474
O         16.98562        44.66936         2.76967
O         19.17412        12.76929         1.26248
O         16.20809        45.93561         2.66331
O         19.83728        29.73419         3.84667
O         23.70179        22.55933         3.51109
O         27.85382        24.60935         3.44635
O         30.72225        22.69961        -0.44684
O         18.10786        52.64062        -2.12345
O         37.57364        31.21826        -2.13789
H         37.62295        30.24811        -2.27643
O         13.37013        44.65332         3.08698
H         14.24222        45.03034         3.35009
O         39.55337        33.79063         0.89450
H         38.83330        34.31644         1.30563
O         33.73040        35.08877        -1.92674
H         32.91341        34.54613        -1.94580
O         23.35148        14.64376        -1.24687
H         24.06482        15.29667        -1.41955
O         28.40056        46.32988         1.17890
H         27.68222        45.96312         1.73621
O         26.75369        34.16884        -0.32732
H         26.38247        33.37962        -0.77436
O         35.30716        37.07209        -2.71267
H         34.39979        36.73026        -2.88274
O         27.65538        35.06007         3.07348
H         26.96704        35.45887         3.68739
O         32.91707        23.55956        -1.18267
H         31.95607        23.49116        -1.41663
O         20.62455        14.54285        -1.51365
H         21.52260        14.82346        -1.81751
O         15.07143        15.92965         0.77814
H         15.60545        15.22182         1.21057
O         13.13563        37.72351         2.68942
H         12.65183        36.95242         3.07741
O         13.41761        48.96455         1.01361
H         13.25223        48.86683         0.05360
O          9.57659        31.98722        -2.19624
H          9.07679        32.52385        -2.84760
O         27.80293        37.27494        -0.91723
H         28.60331        36.89902        -1.36137
O         36.02397        36.12511         0.77112
H         35.31198        35.87095         1.41292
O         15.87357        44.64517        -0.68866
H         16.02660        43.72355        -0.98418
O         18.14398        42.37201         3.52692
H         18.71491        41.75889         4.04662
O         13.12955        36.02765        -0.57772
H         13.70669        35.30329        -0.92083
O         35.16061        24.88714         2.27728
H         34.44967        24.91674         2.95867
O         33.63376        35.61538         1.68833
H         33.22645        36.33869         2.22437
O         28.41420        40.59791         2.40677
H         29.22130        41.14511         2.51150
O         22.92018        18.35028         3.27736
H         22.12153        18.84696         3.57930
O         17.83338        28.33626         3.67116
H         18.51454        28.78626         4.25840
O         20.23246        45.19008        -1.90662
H         19.49011        44.54790        -1.78312
O         24.37117        26.90038         3.88033
H         25.28782        26.82767         4.25627
O          6.62436        31.19329        -0.08170
H          7.20013        30.87366         0.65516
O         30.02885        20.85514         3.16564
H         29.65125        20.05355         3.59780
O         12.18744        35.30734         2.88566
H         11.30101        35.05835         3.23685
O         10.41099        23.09742        -2.73152
H         10.10415        22.93432        -1.81641
O          8.89091        30.90410         1.23647
H          9.44906        30.38140         1.85171
O         13.24775        41.82175         3.14478
H         13.23045        42.76667         3.44058
O         12.26744        38.31495        -0.87551
H         13.20165        38.56405        -1.08133
O         17.92858        33.35470         0.17520
H         18.68977        32.99472        -0.32680
O         17.10751        33.47419         3.72900
H         17.46023        34.26774         4.19828
O         27.04738        26.96681         3.99953
H         27.64684        26.27958         4.38156
O         26.63391        12.86994        -1.62666
H         27.46868        13.29617        -1.92011
O         33.56756        41.93037         1.35859
H         32.94624        41.41158         1.91281
O         36.50669        34.78190        -2.60804
H         36.21669        35.62743        -3.03583
O         19.65857         6.36189        -3.86191
H         19.67481         5.78112        -3.07242
O         14.88885        23.42947         1.36744
H         15.09312        22.64877         1.93763
O         29.46575        51.14658         0.50264
H         28.69377        51.67961         0.79304
O         35.18422        24.90644        -1.38558
H         34.35002        24.43117        -1.62770
O         22.09071        31.11059         3.56756
H         21.28408        30.61534         3.93250
H          5.98280        31.75417        -2.93624
H          6.05305        34.19890        -2.63394
H          8.20120        27.38877        -2.52975
H          6.88278        29.42478        -2.36381
H          6.70885        36.13846        -1.28627
H          7.60956        38.18577        -0.17126
H         12.00840        23.89541        -3.74277
H          9.51854        25.31919        -2.72676
H          8.74392        40.28766         0.43222
H          9.93255        42.41675         0.72742
H         12.88242        18.83054        -2.24367
H         11.79737        21.00634        -2.53925
H         11.15790        44.54055         0.93066
H         12.44451        46.75917         1.31405
H         15.39226        14.76715        -2.29160
H         13.74075        16.61811        -1.54720
H         14.85428        48.53779         2.41606
H         14.86377        50.79068         1.08868
H         17.42596        10.26378        -2.23326
H         16.27250        12.10988        -2.02667
H         16.32788        53.05285         0.77643
H         17.71378        55.17494         0.06340
H         20.91583         7.66139        -4.84602
H         18.72971         8.49300        -3.14033
H         18.56336        57.07561        -1.07526
H         19.72623        59.13644        -1.38616
H         23.64340         3.85257        -5.74177
H         21.54389         5.16475        -5.64018
H         23.17349        62.42059        -1.36957
H         20.99769        61.23904        -1.29714
H         25.57222         4.42595        -4.30818
H         26.70980         6.12397        -2.93637
H         26.45109        59.06310        -2.39915
H         25.28289        61.21883        -1.86756
H         27.85169         7.93641        -1.83215
H         29.08827         9.84601        -0.88396
H         28.87612        54.85638        -2.27788
H         27.62874        56.97552        -2.61508
H         30.28207        11.84783        -0.17034
H         31.50879        13.93659         0.05392
H         31.45096        50.66836        -1.57117
H         30.14821        52.84722        -1.73944
H         32.74972        16.10433         0.13645
H         33.99337        18.24305         0.14898
H         33.93647        46.34884        -1.54668
H         32.66677        48.51765        -1.64490
H         35.22838        20.36055         0.16639
H         36.48791        22.49810         0.09980
H         36.37902        42.14259        -1.44789
H         35.09701        44.22039        -1.59798
H         37.79679        24.72905        -0.10361
H         39.05760        26.81761         0.08490
H         38.89788        37.84813        -1.10100
H         37.65239        39.99203        -1.22818
H         40.27854        28.94479        -0.18762
H         41.36040        31.01003        -1.26800
H         41.32240        33.45489        -1.47394
H         40.14273        35.75367        -0.91408
