         430
 CSIRO Nanostructure Databank - Neutral Graphene Oxide Data Set
C         27.85451        27.30940         0.13255
C         27.83075        28.74127        -0.09935
C         26.65729        29.46514        -0.16886
C         27.81066        31.63078        -0.33564
C         26.65152        30.89365        -0.23287
C         27.85803        33.09165        -0.25456
C         26.67210        33.83103        -0.03374
C         27.90043        35.93267         0.03904
C         26.69283        35.21124         0.09914
C         27.92818        37.38881         0.22362
C         26.78685        38.08846         0.66231
C         27.95414        40.21622         0.51132
C         26.80742        39.47370         0.81259
C         28.01854        41.71534         0.76955
C         26.70587        42.46528         0.63704
C         27.93654        44.55807         0.27579
C         26.69712        43.79751         0.43040
C         27.96543        45.96419         0.33611
C         30.35537        27.26363        -0.07232
C         29.01548        26.62435         0.20656
C         30.29234        28.77084        -0.00263
C         29.10446        29.43503        -0.13049
C         30.37351        31.61907        -0.62490
C         29.08147        30.88330        -0.47420
C         30.37133        33.14051        -0.79602
C         29.08065        33.80140        -0.33841
C         30.36751        35.92734        -0.23739
C         29.10242        35.21173        -0.19763
C         30.34587        37.40731        -0.52435
C         29.11131        38.12030        -0.02324
C         30.37931        40.26605        -0.08511
C         29.12646        39.52730         0.10491
C         30.38045        41.65144        -0.09326
C         29.05537        42.36871        -0.14784
C         30.37147        44.54528         0.02857
C         29.14375        43.85755         0.09354
C         30.39086        45.97046         0.03624
C         29.16793        46.65310         0.19195
C         32.78139        24.54880         0.34964
C         31.62211        25.20614         0.60135
C         32.82038        27.41111         0.44279
C         31.52256        26.69786         0.77491
C         32.82809        28.75981         0.24124
C         31.53870        29.54123         0.36694
C         32.79030        31.64133        -0.07575
C         31.61633        30.93845        -0.19484
C         32.77007        33.09786        -0.06420
C         31.60350        33.80121        -0.21997
C         32.83479        35.96621        -0.00104
C         31.57175        35.25067        -0.14140
C         32.83984        37.39888        -0.00029
C         31.62207        38.11554        -0.12774
C         32.87002        40.21269         0.01080
C         31.62794        39.51459        -0.08699
C         32.87265        41.65830        -0.40520
C         31.60343        42.41282        -0.10823
C         32.88497        44.54392         0.24504
C         31.60868        43.79016        -0.03644
C         32.86929        45.98473        -0.19306
C         31.65754        46.68197        -0.17841
C         32.86758        48.77126        -0.55453
C         31.68328        48.09309        -0.40763
C         35.30814        23.06915        -0.00841
C         35.25639        24.49868         0.11238
C         34.05726        25.20375         0.28474
C         35.33557        27.36869         0.16398
C         34.10885        26.65965         0.68774
C         35.30831        28.81398         0.06151
C         34.07255        29.51087         0.14342
C         35.27934        31.63861         0.01065
C         34.06234        30.92786         0.07543
C         35.25787        33.12379        -0.25355
C         34.03822        33.78069         0.38914
C         35.27400        35.96480         0.26826
C         34.03263        35.27142         0.15830
C         35.28850        37.36542         0.33450
C         34.07030        38.09624         0.21843
C         35.32444        40.28697         0.52461
C         34.06203        39.52476         0.19891
C         35.34568        41.69925         0.01892
C         34.13905        42.40155        -0.09439
C         35.36184        44.50150        -0.26251
C         34.14036        43.80326        -0.12716
C         35.34905        45.94920        -0.39413
C         34.11849        46.66214        -0.38428
C         35.35835        48.79147        -0.62055
C         34.12546        48.09356        -0.52446
C         35.42291        50.24093        -0.55700
C         37.75668        23.08212         0.06762
C         36.49936        22.39765        -0.03008
C         37.72947        24.51027         0.11488
C         36.51952        25.20622         0.09352
C         37.73363        27.34242        -0.48919
C         36.50019        26.65416        -0.03379
C         37.76238        28.84201        -0.39932
C         36.51382        29.54244        -0.06217
C         37.77846        31.68175        -0.02567
C         36.51607        30.95565        -0.02364
C         37.77776        33.08480         0.10694
C         36.54301        33.82798         0.12458
C         37.77403        35.93989         0.32795
C         36.52353        35.20524         0.29848
C         37.80251        37.32330         0.30822
C         36.57368        38.08845         0.69404
C         37.81024        40.22682         0.12722
C         36.59495        39.53121         0.26809
C         37.82464        41.65933        -0.01004
C         36.57920        42.38509        -0.09446
C         37.84121        44.45586        -0.74741
C         36.56899        43.77800        -0.33663
C         37.82422        45.94207        -0.52319
C         36.58757        46.64138        -0.52576
C         37.82753        48.75562        -0.80028
C         36.59095        48.07190        -0.65182
C         37.79736        50.18519        -1.28330
C         36.57622        50.90902        -0.77206
C         40.19933        20.24809        -0.26610
C         39.04451        20.95786        -0.16285
C         40.22946        23.11649         0.16054
C         38.99830        22.38129         0.08608
C         40.26598        24.51254         0.12268
C         38.99880        25.30790         0.31686
C         40.27859        27.38855        -0.22040
C         39.04053        26.56390        -0.55721
C         40.26877        28.80347        -0.18215
C         39.04494        29.55348        -0.23143
C         40.27179        31.66064         0.07753
C         39.02489        30.94820        -0.05773
C         40.27309        33.06655         0.28181
C         39.02185        33.80061         0.27830
C         40.21802        35.94749         0.70686
C         39.00481        35.19326         0.35525
C         40.30319        37.37862         0.45656
C         39.06700        38.04199        -0.08853
C         40.28773        40.22027         0.24879
C         39.06160        39.52512         0.15191
C         40.29404        41.65839         0.17086
C         39.06433        42.36439        -0.03143
C         40.28940        44.49642        -0.16513
C         39.08253        43.77282        -0.23461
C         40.29161        45.93292        -0.33656
C         39.04579        46.63949        -0.49567
C         40.29688        48.78479        -0.63545
C         39.04578        48.07074        -0.64468
C         40.28875        50.22309        -0.79989
C         39.09428        50.92594        -1.06658
C         40.31167        53.02970        -1.16720
C         39.12568        52.31850        -1.26440
C         42.74546        20.25791        -0.41644
C         41.49632        20.85669         0.04956
C         42.76239        23.10468         0.01879
C         41.50479        22.38672         0.25377
C         42.73844        24.53231        -0.03061
C         41.49696        25.23286         0.01365
C         42.74247        27.37861        -0.01991
C         41.49377        26.67246        -0.07577
C         42.74004        28.81316        -0.01142
C         41.51490        29.51628        -0.04921
C         42.74110        31.66524         0.03396
C         41.50754        30.95029         0.02286
C         42.73680        33.08177         0.18640
C         41.51032        33.75006         0.40158
C         42.77567        35.93979         0.64849
C         41.53686        35.16902         0.76907
C         42.76269        37.34636         0.68998
C         41.51510        38.06997         0.55787
C         42.75711        40.23592         0.50734
C         41.52980        39.51311         0.41372
C         42.75632        41.66795         0.39957
C         41.52036        42.37678         0.21563
C         42.74487        44.53320         0.11989
C         41.51654        43.80059         0.07624
C         42.73833        45.95825        -0.05170
C         41.50620        46.65464        -0.27160
C         42.75067        48.81822        -0.34340
C         41.50482        48.09332        -0.41968
C         42.75177        50.24753        -0.50831
C         41.52075        50.94050        -0.72631
C         42.75885        53.06637        -0.83411
C         41.52351        52.35548        -0.90201
C         43.90797        20.96610        -0.40319
C         45.21023        23.11042        -0.21450
C         43.95918        22.38672        -0.14433
C         45.21914        24.52541        -0.14922
C         43.97450        25.25227        -0.07404
C         45.25618        27.38291         0.28196
C         43.96456        26.66212        -0.00359
C         45.22316        28.84613        -0.04812
C         43.99258        29.53701        -0.03492
C         45.21903        31.67601        -0.16607
C         43.98589        30.96116        -0.06162
C         45.23133        33.12713        -0.03898
C         43.97475        33.82118         0.23881
C         45.28448        35.86552         0.81296
C         43.97685        35.19316         0.49720
C         45.21213        37.37502         0.80768
C         44.02671        38.07890         0.72924
C         45.19524        40.29213         0.81197
C         43.99781        39.54316         0.69423
C         45.19859        41.70323         0.70885
C         43.97924        42.39920         0.47098
C         45.19430        44.58103         0.31513
C         43.96750        43.83397         0.31302
C         45.17156        46.00320         0.23090
C         43.96397        46.69316         0.03534
C         45.20432        48.86239        -0.08344
C         43.96126        48.13605        -0.10879
C         45.21248        50.27481        -0.29686
C         43.97020        50.97611        -0.47951
C         43.93760        52.39696        -0.63425
C         47.64396        23.10165        -0.41015
C         46.44995        22.42108        -0.33240
C         47.68768        24.51938        -0.37745
C         46.46598        25.24227        -0.24207
C         47.68394        27.38565        -0.43423
C         46.48538        26.66293        -0.20953
C         47.65922        28.81135        -0.47354
C         46.43908        29.53907        -0.26863
C         47.65284        31.70148        -0.69376
C         46.41688        30.96650        -0.36752
C         47.65278        33.21218        -0.60571
C         46.40064        33.84927        -0.17272
C         47.69733        36.02736         0.04004
C         46.35695        35.35745        -0.16144
C         47.69951        37.36280         0.34217
C         46.53555        38.03545         1.08144
C         47.72253        40.31149         0.59730
C         46.48999        39.56410         0.97289
C         47.62463        41.73274         0.08708
C         46.49563        42.48740         0.85398
C         47.66587        44.62114         0.18525
C         46.43781        43.90960         0.39007
C         47.67904        45.99514         0.18798
C         46.43518        46.75094         0.58500
C         47.65244        48.88548         0.09465
C         46.43552        48.18728         0.13089
C         47.64389        50.28649        -0.13583
C         46.45679        50.95957        -0.31408
C         50.17796        24.55520        -0.35197
C         48.93641        25.23765        -0.42751
C         50.18254        27.34186        -0.57698
C         48.93846        26.65848        -0.52435
C         50.20904        28.79000        -0.84002
C         48.88418        29.55021        -0.81782
C         50.15259        31.69934        -0.56017
C         48.94874        31.00717        -0.62900
C         50.16971        33.15764        -0.41731
C         48.94865        33.90502        -0.40730
C         50.19472        35.98924        -0.09305
C         48.94633        35.30197        -0.20253
C         50.22664        37.40571         0.07431
C         48.93628        38.12005         0.07798
C         50.20558        40.33221         0.32910
C         48.94842        39.59379         0.16446
C         50.16676        41.73439         0.28536
C         48.94694        42.43865         0.14775
C         50.19274        44.61322         0.17302
C         48.93585        43.88575        -0.24371
C         50.18948        45.98829         0.24070
C         48.94335        46.73675        -0.18844
C         50.05319        48.78843         0.71186
C         48.91183        48.17470         0.26015
C         51.37476        25.23847        -0.33552
C         52.66144        27.39058        -0.43841
C         51.40780        26.65147        -0.45271
C         52.65285        28.81787        -0.42630
C         51.43511        29.55566        -0.57726
C         52.64439        31.67491        -0.31442
C         51.41151        30.96288        -0.50953
C         52.64736        33.09323        -0.17312
C         51.40349        33.82985        -0.21940
C         52.64150        35.98392         0.03312
C         51.42616        35.26592        -0.08981
C         52.66163        37.40414         0.09359
C         51.41942        38.11288         0.17287
C         52.69713        40.30650         0.19347
C         51.45711        39.56284         0.61742
C         52.67205        41.74306         0.22400
C         51.43154        42.46374         0.31433
C         52.64525        44.58880         0.52016
C         51.41831        43.86907         0.35331
C         52.64410        46.00191         0.69390
C         51.38275        46.72452         0.60174
C         51.28780        48.09112         0.83141
C         55.09950        27.40226        -0.30959
C         53.90258        26.71342        -0.39212
C         55.11291        28.81458        -0.24800
C         53.88242        29.53056        -0.30563
C         55.11560        31.65256        -0.07909
C         53.87877        30.95751        -0.23926
C         55.10176        33.07299         0.06377
C         53.88012        33.76802         0.03134
C         55.15932        35.92540        -0.13514
C         53.90446        35.23989         0.37231
C         55.15133        37.42428        -0.23700
C         53.88798        38.15109         0.03379
C         55.15118        40.29523        -0.28479
C         53.88366        39.57375         0.00415
C         55.15679        41.81766        -0.13161
C         53.88306        42.47859         0.20105
C         55.11219        44.58063         0.63492
C         53.88063        43.87514         0.46738
C         55.08165        45.96178         0.88202
C         53.87495        46.65946         0.89888
C         56.33747        29.53712        -0.13685
C         56.33538        30.90508        -0.05231
C         56.34832        33.81664         0.22621
C         56.40427        35.15861         0.10981
C         56.41358        38.18875        -0.16014
C         56.41347        39.53037        -0.16500
C         56.39881        42.56170         0.14249
C         56.36137        43.86180         0.52459
O         40.78754        35.49928         1.98354
O         47.39262        40.13859         2.01202
O         29.73723        31.01129        -1.82145
O         47.53610        32.53799        -1.91419
O         49.51517        29.13386        -2.08609
O         37.58242        28.13646        -1.71502
O         41.56552        21.45290         1.38436
O         55.11935        41.15832        -1.46235
O         55.06249        36.54268        -1.44530
O         48.76852        38.97133        -1.17947
O         46.45029        46.81007         2.06311
H         46.43308        45.88417         2.39012
O         34.22548        26.63273         2.17231
H         35.08666        26.21227         2.38643
O         54.01392        35.31621         1.84099
H         53.27724        34.79232         2.22121
O         39.14037        37.88247        -1.56960
H         39.90613        38.41139        -1.88129
O         45.63725        35.39287         2.14236
H         46.10098        36.12438         2.61689
O         35.10233        33.29123        -1.69324
H         35.85106        32.83912        -2.13538
O         28.54738        42.20275        -1.50675
H         29.17379        42.64167        -2.11913
O         37.90581        44.29526        -2.22321
H         38.72266        44.74643        -2.52673
O         30.71158        26.91795        -1.44789
H         30.06661        27.35604        -2.04261
O         36.59767        38.11502         2.17450
H         35.92789        38.79217         2.45056
O         47.18580        41.67588        -1.30708
H         47.71495        40.97569        -1.75304
O         31.23881        26.98043         2.17966
H         32.05701        26.74426         2.67466
O         31.37977        29.75408         1.82319
H         31.27735        28.84907         2.21981
O         38.98896        25.77898         1.69956
H         39.10885        25.00132         2.28431
O         45.38810        27.33958         1.76799
H         45.36733        26.39344         2.02903
O         48.95042        46.76123        -1.65548
H         48.98078        45.81564        -1.95284
O         30.28684        37.50408        -1.99743
H         30.85145        36.78989        -2.36402
O         45.92899        35.75064        -1.49946
H         46.51804        35.31018        -2.14862
O         28.48519        41.88164         2.13529
H         27.83313        41.46205         2.73363
O         35.26229        40.45151         2.01730
H         35.98855        41.06315         2.26864
O         46.84321        42.63061         2.25365
H         47.00452        41.72782         2.62291
O         30.45215        33.41945        -2.22665
H         30.02158        32.65278        -2.67615
O         51.54196        39.46914         2.10723
H         52.37752        38.99961         2.31894
O         46.83432        37.74169         2.49202
H         47.37029        38.49826         2.83411
O         48.88899        43.93155        -1.72494
H         48.17358        43.30334        -1.99104
O         37.63571        50.10999        -2.74823
H         36.80997        49.60926        -2.92138
O         39.20165        26.11066        -1.92103
H         38.85180        26.83045        -2.49578
O         32.88872        41.58202        -1.88708
H         32.15878        40.98300        -2.15616
O         32.94231        44.60992         1.72569
H         33.67743        45.21481         1.96253
O         34.17162        33.56875         1.82280
H         33.40084        33.97965         2.26652
H         26.89388        26.79063         0.27455
H         25.69331        28.94072        -0.09775
H         25.67622        31.39457        -0.16057
H         25.70563        33.31347         0.02707
H         25.74003        35.73527         0.25179
H         25.85982        37.55005         0.89980
H         25.89719        39.97853         1.16666
H         25.75386        41.93507         0.79120
H         25.74545        44.35089         0.40557
H         27.03008        46.52252         0.48587
H         28.98271        25.53815         0.37531
H         29.14921        47.75109         0.22197
H         32.73886        23.45870         0.20914
H         30.69695        24.61890         0.69103
H         32.84037        49.85789        -0.71234
H         30.74178        48.65687        -0.45208
H         34.37537        22.49171        -0.05427
H         34.52196        50.80029        -0.26710
H         36.47648        21.30195        -0.09091
H         36.59187        52.00459        -0.68335
H         40.17615        19.19876        -0.59561
H         38.10324        20.43443        -0.37709
H         40.32097        54.11811        -1.32155
H         38.20132        52.85489        -1.51818
H         42.72740        19.22620        -0.79766
H         42.75311        54.15901        -0.95649
H         44.82649        20.45671        -0.72439
H         44.87026        52.97403        -0.59400
H         48.57113        22.52276        -0.51062
H         46.47002        21.32417        -0.35827
H         48.59419        50.83544        -0.18653
H         46.48940        52.04255        -0.48877
H         50.20024        23.46123        -0.26566
H         50.02756        49.84705         1.00885
H         52.30574        24.66606        -0.23566
H         52.17030        48.66345         1.14794
H         56.05121        26.85296        -0.27851
H         53.93183        25.61670        -0.42684
H         56.02680        46.50436         1.02836
H         53.89927        47.74657         1.05447
H         57.28519        28.98029        -0.11315
H         57.29625        31.42739         0.03761
H         57.28099        33.26268         0.39575
H         57.37305        35.67605         0.15233
H         57.36643        37.64106        -0.14627
H         57.36631        40.07797        -0.16363
H         57.36583        42.06362        -0.01196
H         57.29681        44.41184         0.70556
