         344
 CSIRO Nanostructure Databank - Neutral Graphene Oxide Data Set
C          1.10119         3.69055        -1.15000
C          0.04328         4.49078        -1.42755
C          1.11762         6.47497        -0.44891
C          0.00517         5.86152        -1.00368
C          1.13010         7.87807        -0.03484
C         -0.00907         8.67532        -0.06134
C          1.13730        10.63619         0.84924
C          0.01785        10.04966         0.33511
C          1.17511        12.04305         1.42471
C         -0.07473        12.85680         1.20741
C          1.16759        14.93781         0.66512
C         -0.07457        14.17054         0.94510
C          1.20440        16.41703         0.77715
C          0.01718        17.14796         0.89602
C          1.16991        19.19898         0.31259
C          0.00177        18.52726         0.68332
C          1.10361        20.57948        -0.23802
C         -0.11009        21.40214        -0.05895
C          1.11585        23.52680        -0.34580
C         -0.08217        22.76083        -0.14228
C          1.10399        24.92710        -0.30339
C         -0.07409        25.71613        -0.24093
C          1.16206        27.82906        -0.43003
C         -0.03195        27.11621        -0.25776
C          1.22348        29.24717        -0.40440
C          3.56478         3.55871        -0.73312
C          2.25988         4.19141        -0.33405
C          3.52590         6.33499         0.00398
C          2.33208         5.70444        -0.28789
C          3.57363         7.75891         0.25699
C          2.38111         8.46881         0.36590
C          3.65426        10.58685         0.79414
C          2.38827         9.81077         1.05743
C          3.63162        12.01808         0.86021
C          2.44306        12.74875         1.00105
C          3.73185        14.95915         0.97515
C          2.47783        14.20092         0.74882
C          3.71115        16.39784         0.80002
C          2.44485        17.09837         0.61204
C          3.63625        19.23542         0.08267
C          2.41629        18.50691         0.33424
C          3.65946        20.62425        -0.23285
C          2.38447        21.30212        -0.56888
C          3.65762        23.51017        -0.45450
C          2.37108        22.81285        -0.84153
C          3.66511        24.90394        -0.38579
C          2.40203        25.68241        -0.10475
C          3.68979        27.79212        -0.47577
C          2.40895        27.05025        -0.78022
C          3.68733        29.21506        -0.41248
C          2.42761        29.91961        -0.43596
C          6.02582         3.53447        -0.68235
C          4.77024         4.16626        -0.44911
C          6.09673         6.29328         0.14558
C          4.77245         5.54169         0.10065
C          6.04850         7.76958         0.20009
C          4.85987         8.44434         0.35870
C          6.05406        10.64231         0.35644
C          4.84650         9.90995         0.50687
C          6.08745        12.03679         0.56841
C          4.87065        12.73978         0.79356
C          6.18427        14.65530         1.42653
C          4.89624        14.14412         1.08443
C          6.18439        16.76400         1.16621
C          4.88487        17.19667         0.71603
C          6.10852        19.19967        -0.02167
C          4.87878        18.54772         0.22441
C          6.13296        20.62479        -0.14353
C          4.87303        21.33387        -0.25045
C          6.09317        23.49785        -0.24136
C          4.88274        22.78570        -0.35635
C          6.11518        24.91300        -0.31564
C          4.88760        25.62382        -0.36924
C          6.13850        27.76529        -0.28253
C          4.89383        27.07186        -0.37544
C          6.13646        29.20240        -0.19681
C          4.90290        29.89957        -0.25408
C          8.47777         3.56529        -1.19784
C          7.23647         4.25183        -0.67424
C          8.48068         6.41851        -0.86817
C          7.29294         5.61556        -0.37139
C          8.57304         7.81084        -0.27581
C          7.36535         8.49382         0.35085
C          8.57739        10.64918         0.15649
C          7.28379         9.93334        -0.15377
C          8.56746        12.02339         0.45434
C          7.35801        12.73272         0.58987
C          8.63073        14.88864         0.90801
C          7.39795        14.10937         1.00694
C          8.66081        16.42603         1.04085
C          7.37748        17.13993         0.62990
C          8.65352        19.13661        -0.03890
C          7.36642        18.37547        -0.23048
C          8.63858        20.62272         0.20952
C          7.34969        21.32865        -0.10462
C          8.61702        23.51214        -0.25620
C          7.35374        22.80308         0.18068
C          8.59950        24.89248        -0.40838
C          7.36733        25.62502        -0.32494
C          8.61392        27.77017        -0.20911
C          7.36721        27.04751        -0.29730
C          8.59303        29.19996        -0.01269
C          7.35741        29.88945        -0.02940
C         10.93932         3.51261        -0.56104
C          9.75221         4.23553        -0.74975
C         10.98722         6.31454        -0.48609
C          9.77196         5.63901        -0.68063
C         11.00038         7.79188        -0.81712
C          9.75228         8.50032        -0.29905
C         11.01486        10.64860         0.11728
C          9.78940         9.92767         0.03859
C         11.06496        12.01719         0.44051
C          9.82649        12.70332         0.93643
C         11.07949        14.89135         0.54587
C          9.82288        14.20454         0.73592
C         11.06019        16.30496         0.29162
C          9.87691        17.02678         0.35432
C         11.09359        19.12638        -0.44140
C          9.83349        18.43516         0.03515
C         11.09932        20.62467        -0.27995
C          9.85759        21.35953        -0.30981
C         11.08681        23.47531        -0.68454
C          9.82972        22.74757        -0.41323
C         11.12771        24.94758        -0.50205
C          9.84009        25.66869        -0.81036
C         11.06915        27.77269        -0.11114
C          9.84023        27.09071        -0.30057
C         11.04649        29.19732         0.11961
C          9.81352        29.88512         0.14394
C         13.38154         3.40604         0.11061
C         12.13590         4.17839        -0.25834
C         13.41229         6.26240         0.27407
C         12.16671         5.58502        -0.24764
C         13.50289         7.73419        -0.01836
C         12.31004         8.49572        -0.43819
C         13.51729        10.61916         0.36626
C         12.29122         9.96044        -0.10480
C         13.53233        11.99592         0.44314
C         12.28653        12.72611         0.44992
C         13.57187        14.82983         0.48923
C         12.30358        14.15763         0.51749
C         13.53612        16.33085         0.57691
C         12.35770        16.93340        -0.19555
C         13.54219        19.11649         0.15364
C         12.37490        18.44485        -0.03812
C         13.56473        20.62353         0.27670
C         12.30575        21.27740        -0.23043
C         13.63394        23.43284        -0.26192
C         12.37222        22.70721        -0.52533
C         13.57748        24.89128        -0.01455
C         12.29686        25.61801        -0.24904
C         13.53821        27.77657         0.00660
C         12.31921        27.07102        -0.12375
C         13.49913        29.20521         0.20226
C         12.26749        29.88394         0.27871
C         15.86668         3.44497        -0.40687
C         14.67230         4.14027        -0.18435
C         15.91522         6.25220        -0.09427
C         14.69241         5.54196        -0.06624
C         15.94844         7.67245         0.14245
C         14.70135         8.38418         0.20287
C         16.02186        10.54560         0.42078
C         14.73762         9.81185         0.68438
C         15.99958        11.98015         0.53497
C         14.80297        12.69598         0.55711
C         16.06515        14.83078         0.37824
C         14.78489        14.14163         0.53126
C         16.08165        16.26637        -0.11011
C         14.82514        17.02160         0.21751
C         16.08012        19.12036         0.25284
C         14.82625        18.39392         0.20217
C         16.03172        20.59592         0.27917
C         14.81622        21.24362        -0.37377
C         16.09929        23.48882        -0.37660
C         14.81053        22.76043        -0.23336
C         16.16181        24.96896        -0.28044
C         14.87677        25.65303         0.02322
C         16.02220        27.83107        -0.02900
C         14.83078        27.12751        -0.05592
C         15.95573        29.26028         0.19477
C         14.71434        29.90624         0.33753
C         18.33860         3.43268        -0.67314
C         17.10313         4.12972        -0.47645
C         18.37383         6.25556        -0.29892
C         17.13288         5.54579        -0.29950
C         18.40057         7.67695        -0.12640
C         17.17453         8.38548         0.09459
C         18.43623        10.57549        -0.20177
C         17.18541         9.83062         0.19825
C         18.51771        11.98450         0.32791
C         17.29154        12.69652         0.83647
C         18.53491        14.84591         0.07083
C         17.24359        14.15130         0.43673
C         18.51885        16.31750         0.42626
C         17.33381        17.01049         0.31930
C         18.55249        19.17336         0.56225
C         17.29532        18.45367         0.41566
C         18.58997        20.58881         0.46697
C         17.32365        21.33972         0.37219
C         18.63066        23.48362        -0.04832
C         17.37699        22.73097        -0.16019
C         18.60954        24.86035        -0.42224
C         17.35890        25.64802        -0.38494
C         18.47839        28.09054        -0.54809
C         17.39998        27.14842         0.02928
C         18.35526        29.48633        -0.23775
C         17.13572        30.02030         0.25062
C         19.53355         4.11019        -0.66796
C         20.82016         6.22548        -0.45139
C         19.58254         5.52469        -0.47559
C         20.85628         7.59049        -0.28260
C         19.66362         8.36679        -0.13963
C         20.92267        10.51662         0.05670
C         19.71265         9.78638        -0.02289
C         20.94503        11.89567         0.16817
C         19.73205        12.64843         0.35259
C         20.87170        14.80236         0.93765
C         19.75997        14.09945         0.54577
C         20.89264        16.22928         0.98512
C         19.76274        16.99398         0.72235
C         20.97232        19.18838         0.79902
C         19.77007        18.45373         0.71879
C         20.99522        20.56952         0.65444
C         19.80687        21.30600         0.45417
C         21.05314        23.43002         0.00188
C         19.82954        22.75772         0.18326
C         21.06489        24.70380        -0.55645
C         19.86671        25.38888        -0.79766
C         20.64047        28.69076        -1.59812
C         19.66202        27.74678        -1.21879
C         20.51776        30.02869        -1.22940
C         19.38289        30.41935        -0.53514
O         11.82752        23.02539        -1.87273
O          1.64236        20.59274        -1.62607
O         16.44820        21.19951         1.54887
O          5.50429         5.66936         1.36246
O         19.98265        26.47251        -1.65243
O          1.82472        14.50414        -0.58128
O         16.82471        22.88720        -1.53022
O         14.22759        25.20632         1.27815
O         12.60239         9.48612        -1.50103
O          6.20620        15.81173         2.21086
O          2.42887         9.48615         2.51371
H          1.71979         8.82795         2.68007
O         11.03441        18.93808        -1.91587
H         11.71413        19.52711        -2.31219
O          2.31882        22.97007        -2.29090
H          1.81922        22.19075        -2.63314
O         13.64561        20.95503         1.68803
H         12.95304        20.45142         2.16461
O          7.35779        22.94439         1.69007
H          6.48117        22.63129         2.00313
O          8.25306         6.58126        -2.30073
H          8.29067         5.67856        -2.69939
O          1.27896        11.90334         2.88359
H          1.85348        11.11287         3.05870
O         16.14157        16.19922        -1.57192
H         16.93903        15.65573        -1.79554
O         12.51051        16.62432        -1.59496
H         11.88424        17.20977        -2.08563
O         18.59413        14.80282        -1.41315
H         19.40406        15.28746        -1.68209
O          7.60787         8.56589         1.78536
H          7.45992         7.67492         2.16708
O         17.72685        27.07697         1.45550
H         16.96811        26.66230         1.91926
O         13.27421        16.65363         1.98054
H         13.99933        16.27909         2.52253
O          8.84819        16.67369         2.46950
H          8.01562        16.39027         2.91299
O          9.85009        12.49413         2.39848
H          9.04232        12.91480         2.76369
O          8.42886         3.66315        -2.64398
H          9.29071         3.35942        -2.99758
O          7.35299        17.95231        -1.63951
H          7.42078        18.75716        -2.19537
O         13.28266         6.15621         1.74004
H         13.23559         5.19054         1.94744
O         18.30117        10.73329        -1.67650
H         19.06381        11.27197        -1.97902
O         14.81130        20.90831        -1.77400
H         15.51364        21.45159        -2.20263
O          7.13970         9.87018        -1.60076
H          7.17287        10.78379        -1.95294
O          2.38469        26.82635        -2.21844
H          2.37398        27.70059        -2.66051
O          2.45151        25.96574         1.33078
H          2.38492        25.11479         1.81189
O          8.79983        20.69046         1.68119
H          8.45272        21.57868         1.96354
O          9.76530        25.77144        -2.27637
H         10.60275        26.17326        -2.59008
O         13.33284         3.21606         1.54850
H         14.18265         2.81670         1.82899
O         10.92049         7.79154        -2.26741
H         11.29855         8.64970        -2.57194
O         17.41658        12.66958         2.31270
H         16.69773        13.22926         2.67597
O         14.68630         9.64685         2.16179
H         14.93798        10.50760         2.56049
O          2.00956         3.74764         1.05607
H          2.77845         4.03916         1.59230
H          1.10310         2.63493        -1.45923
H         -0.82023         4.09405        -1.98144
H         -0.91923         6.42990        -1.17513
H         -0.96636         8.26239        -0.40630
H         -0.91061        10.62899         0.22546
H         -1.03359        12.35746         1.41400
H         -1.03745        14.69932         0.88192
H         -0.93450        16.63501         1.08653
H         -0.96084        19.05362         0.71876
H         -1.06460        20.90571         0.16282
H         -1.02116        23.30337         0.04100
H         -1.06009        25.23092        -0.21432
H         -0.97344        27.67599        -0.14421
H          0.28588        29.81608        -0.30690
H          3.55222         2.53087        -1.12688
H          2.44361        31.01820        -0.39187
H          6.03317         2.48429        -1.00974
H          4.90242        30.99707        -0.17624
H          8.47674         2.47702        -0.90617
H          7.35118        30.98420         0.07931
H         10.92380         2.41297        -0.61563
H          9.80923        30.97658         0.28025
H         13.37989         2.39562        -0.38887
H         12.26099        30.97084         0.44657
H         15.85084         2.34871        -0.50915
H         14.69437        30.99072         0.51914
H         18.31807         2.34253        -0.81680
H         17.07297        31.09600         0.47071
H         20.47816         3.56480        -0.80993
H         21.75611         5.66181        -0.57720
H         21.83245         8.09381        -0.28440
H         21.88417         9.98386         0.04617
H         21.91113        12.41839         0.19709
H         21.78498        14.26581         1.23400
H         21.83616        16.71502         1.26826
H         21.92644        18.66221         0.94000
H         21.96630        21.08006         0.69659
H         22.00890        22.92090         0.17913
H         22.01339        25.17246        -0.84893
H         21.52000        28.33607        -2.15072
H         21.29952        30.75493        -1.48906
H         19.23638        31.47092        -0.25173
