         268
 CSIRO Nanostructure Databank - Neutral Graphene Oxide Data Set
C        -11.09362         0.60595        -1.29109
C         -9.79470         1.39213        -1.32303
C         -8.82751         0.74514        -0.31599
C         -7.63046         1.53195         0.07817
C         -6.43431         0.81338         0.63393
C         -5.12885         1.52689         0.57828
C         -3.85981         0.71322         0.63234
C         -2.58950         1.48525         0.84815
C         -1.30617         0.72374         0.66938
C         -0.04667         1.36138         0.00022
C          1.22670         0.73003         0.64800
C          2.52834         1.50035         0.67100
C          3.81278         0.73260         0.80395
C          5.18937         1.39289         0.74244
C          6.21547         0.79577        -0.20456
C          7.53375         1.50107        -0.10131
C          8.76283         0.71311        -0.27229
C          9.99221         1.39404        -0.39195
C         11.19845         0.59336        -0.59328
C         -9.87588         2.88966        -1.01617
C         -8.74610         3.61292        -0.77388
C         -7.43263         2.82610        -0.74567
C         -6.22125         3.71055        -0.35957
C         -4.94562         2.88207        -0.14076
C         -3.94829         3.67795         0.76121
C         -2.58473         2.97093         0.83503
C         -1.44414         3.54980         0.01886
C         -0.05624         2.89572         0.05065
C          1.23868         3.65158         0.06481
C          2.57499         2.84929        -0.03646
C          3.85498         3.64494         0.33857
C          5.15128         2.91938         0.55989
C          6.40740         3.62565         1.08457
C          7.66523         2.84975         0.57743
C          8.91048         3.59759         0.15258
C         10.00291         2.80531        -0.43807
C         -8.74542         5.07126        -0.60629
C         -7.67217         5.84481        -0.26020
C         -6.34849         5.18014        -0.05906
C         -5.14670         5.95942         0.42194
C         -3.85511         5.20660         0.45238
C         -2.60399         5.86825        -0.06917
C         -1.33123         5.09006         0.00373
C         -0.09754         5.81066         0.47790
C          1.18519         5.00031         0.75891
C          2.47909         5.83177         0.56406
C          3.79938         5.11872         0.66147
C          5.12031         5.84375         0.48500
C          6.42826         5.13008         0.69381
C          7.67221         5.77471         0.17159
C          8.81789         5.07207        -0.01062
C         -7.72251         7.37153        -0.47335
C         -6.41543         8.15124        -0.20340
C         -5.16922         7.44033         0.19924
C         -3.86017         8.14270        -0.04995
C         -2.59378         7.37269        -0.19195
C         -1.23406         8.04437        -0.28907
C         -0.08972         7.30453         0.37870
C          1.13488         7.96794        -0.20627
C          2.44092         7.17466        -0.12230
C          3.74703         7.86627        -0.36781
C          5.07681         7.13883        -0.25821
C          6.34551         7.88600        -0.47328
C          7.65456         7.30716         0.08826
C         -6.16839         9.51444        -0.77884
C         -5.01289        10.19481        -0.60722
C         -3.84584         9.63917         0.21655
C         -2.46338        10.24314         0.01299
C         -1.26773         9.53689         0.00315
C          0.00830        10.18115         0.04927
C          1.24493         9.46570        -0.01500
C          2.47952        10.08270        -0.15205
C          3.80136         9.35155        -0.03552
C          5.02571        10.00223        -0.65210
C          6.20047         9.35108        -0.74978
C        -11.10148        -0.73755        -1.17874
C         -9.86870        -1.53774        -0.92452
C         -8.72943        -0.75430        -0.33560
C         -7.71863        -1.46274         0.52251
C         -6.46888        -0.69123         0.90104
C         -5.19436        -1.46489         1.11301
C         -3.88219        -0.77127         0.83574
C         -2.62096        -1.51274         1.30283
C         -1.32813        -0.76206         0.90696
C         -0.11570        -1.46002         0.23974
C          1.21056        -0.77457         0.74564
C          2.50669        -1.52960         0.70754
C          3.81018        -0.77842         0.70902
C          4.93879        -1.42703        -0.07116
C          6.14589        -0.67649        -0.51481
C          7.45741        -1.37990        -0.93569
C          8.67154        -0.76197        -0.25115
C          9.96041        -1.54830        -0.30425
C         11.19101        -0.76142        -0.53396
C         -9.89762        -3.01870        -0.71828
C         -8.81637        -3.69082        -0.25504
C         -7.68731        -2.96004         0.39938
C         -6.34769        -3.64944         0.39947
C         -5.19822        -2.98923         1.11118
C         -3.91232        -3.75365         1.16267
C         -2.65788        -2.97218         0.87034
C         -1.38133        -3.70921         0.62965
C         -0.09981        -2.98719         0.33957
C          1.19308        -3.70299         0.19309
C          2.44910        -2.87955         0.06108
C          3.71472        -3.59185        -0.24174
C          5.01456        -2.92194         0.08261
C          6.29103        -3.67019        -0.07294
C          7.38008        -2.98857        -0.93527
C          8.72697        -3.68241        -0.74800
C          9.90119        -2.99502        -0.64770
C         -8.74264        -5.19809        -0.07250
C         -7.43516        -5.80451        -0.63809
C         -6.19339        -5.05487        -0.11936
C         -4.95323        -5.82418         0.23618
C         -3.85424        -5.18666         0.71763
C         -2.57734        -5.91996         1.02575
C         -1.26943        -5.16374         0.97428
C          0.05737        -5.88986         0.84633
C          1.39235        -5.15348         0.60257
C          2.37126        -5.79211        -0.38265
C          3.67956        -5.04702        -0.58582
C          4.95852        -5.76981        -0.81100
C          6.22640        -5.20203        -0.20638
C          7.48136        -5.83937        -0.76167
C          8.65317        -5.12984        -0.89675
C         -7.34491        -7.30487        -0.43647
C         -6.17643        -7.99100        -0.36657
C         -4.84107        -7.25529        -0.29564
C         -3.80445        -8.10842         0.52827
C         -2.54001        -7.41543         0.97636
C         -1.23057        -8.16580         0.85033
C          0.05977        -7.40093         0.70381
C          1.04765        -8.06514        -0.25948
C          2.33475        -7.27252        -0.55854
C          3.66558        -7.98216        -0.69172
C          4.96251        -7.22105        -0.38985
C          6.22485        -7.97910        -0.72784
C          7.40145        -7.28219        -0.89242
C         -6.09616        -9.42805        -0.61686
C         -4.95173       -10.14283        -0.49265
C         -3.76747        -9.57489         0.19019
C         -2.46383       -10.24046         0.15195
C         -1.25508        -9.58210         0.36240
C         -0.00191       -10.24460         0.22188
C          1.22534        -9.53497         0.04386
C          2.45081       -10.16440        -0.09316
C          3.69511        -9.47508        -0.48732
C          5.02631       -10.09783        -0.28455
C          6.17682        -9.41845        -0.53731
O         -5.94832         4.67295        -1.40689
O         -2.28173        -3.34629        -0.48064
O         -2.41270         2.29381         2.09272
O          6.98686        -3.35881        -2.23045
O         -4.39481         5.83648         1.66604
O         -8.79317         1.43414         0.96475
O          1.12757         0.03769         1.92262
O         -3.38235         7.77927        -1.37366
O         -4.23100        -9.02041         1.52943
O         -0.25180        -8.06649         1.94498
O          3.02664         7.28384        -1.47064
O         -8.17228        -2.30856         1.62216
O         -4.69657        -3.53662         2.36651
O         -0.29527         6.71845         1.66182
O          0.54705         3.53131        -1.17622
O          3.19076         5.71206         1.84052
O          3.16300         1.35935         1.96463
O          9.24338        -1.30214         0.97607
O         -8.68617        -1.18249        -1.73271
O          1.96704        -6.34200        -1.64692
O          4.26999        -5.27420        -1.93612
O          5.77263         7.07250        -1.54969
O          6.65790         1.61806        -1.30028
O          5.83508         5.95322         1.75765
O          4.83176         3.43955        -0.75183
O          2.98803        -2.84132        -1.28491
O          0.35176        -3.57861        -0.96656
O         -0.77277         7.96459        -1.69388
O          0.70931         7.85431        -1.64515
O         -5.91328        -3.90511        -0.98477
O         -1.05186         0.14960         1.98613
O          8.71726         3.01576         1.54257
O         -4.37272        -7.13073        -1.59444
O         -0.44248        -5.42787         2.14242
O         -6.01789         8.08269         1.21429
O          5.03669        -0.94337        -1.43581
O         -7.04401         2.38019        -2.03238
O          3.35371        -1.48020         1.89444
O          5.84510        -3.25403         1.24421
O         -3.75562        -0.21551        -0.49986
O          3.68076        -8.83803        -1.84766
O         -5.96361        -0.96289         2.23725
O          5.09011        -6.95075         1.07399
O         -1.90196         5.46790        -1.28821
O          6.07218        -5.80425         1.16308
O         -2.70841        -6.72818         2.24417
O         -5.90101         1.54405         1.79482
O          0.28777        -8.14957        -1.56596
O         -2.65795        -1.59561         2.73427
H         -2.28879        -0.75756         3.09956
O         -1.92894         3.12893        -1.27663
H         -1.34823         3.50300        -1.97497
O          4.06131         9.32227         1.41406
H          4.22273        10.24072         1.71758
O         -8.13154         7.61766        -1.82288
H         -7.62818         7.02478        -2.41918
O         -4.11103         9.89397         1.61639
H         -4.94884         9.41266         1.84032
O         -8.75073        -5.48254         1.33073
H         -9.36277        -4.86616         1.78270
O         -0.03058         1.07044        -1.39522
H          0.52512         1.75063        -1.84244
O          2.11962        -5.17935         1.84634
H          1.46672        -5.15102         2.58421
O         -0.54311        -6.96884        -1.69124
H         -0.03405        -6.41815        -2.34140
O         -4.44663         2.60675        -1.43653
H         -5.24385         2.50022        -2.03072
O          7.67663        -1.01217        -2.30394
H          7.28424        -1.76973        -2.82895
O          2.66361         2.46926        -1.42475
H          3.57154         2.67337        -1.75672
O          7.85686         7.81627         1.41005
H          7.17765         7.39806         1.99085
O          5.76598         1.10555         2.03486
H          5.08785         1.29387         2.72304
O          6.39139         3.54767         2.50539
H          7.31807         3.62596         2.82499
O         -0.27413        -1.20135        -1.15101
H          0.04193        -1.97885        -1.66780
O         -7.50150        -5.62775        -2.06790
H         -6.60015        -5.75887        -2.43434
O         -4.53970         3.59548         2.05585
H         -3.97806         3.02036         2.62864
O         -9.29604         1.25664        -2.66426
H         -8.37094         1.63988        -2.69759
O          1.09320         4.60289         2.13774
H          0.99282         5.41009         2.68947
H         12.12119        -1.31510        -0.73338
H         12.13971         1.12738        -0.78911
H         10.91736         3.32988        -0.75718
H          9.72316         5.59552        -0.35747
H          8.51312         7.65467        -0.54059
H          7.08945         9.88498        -1.12084
H          4.97117        11.07014        -0.91622
H          2.51935        11.18472        -0.14036
H          0.04225        11.27712         0.15345
H         -2.40449        11.33991         0.11548
H         -4.91563        11.20134        -1.04318
H         -6.98075         9.96341        -1.37076
H         -8.51585         7.81119         0.18717
H         -9.69279         5.58181        -0.84619
H        -10.85438         3.39516        -1.06941
H        -12.04125         1.14384        -1.45033
H        -12.05779        -1.28316        -1.20751
H        -10.77409        -3.57315        -1.09069
H         -9.62374        -5.68769        -0.57652
H         -8.28452        -7.86925        -0.55911
H         -6.99394        -9.91790        -1.02459
H         -4.91652       -11.19960        -0.79572
H         -2.43356       -11.27004        -0.24089
H          0.01232       -11.34436         0.16617
H          2.51571       -11.24424         0.11628
H          5.06116       -11.17030        -0.04306
H          7.13677        -9.95503        -0.49630
H          8.33037        -7.83835        -1.09513
H          9.58385        -5.67468        -1.12536
H         10.85598        -3.54585        -0.65902
