         232
 CSIRO Nanostructure Databank - Neutral Graphene Oxide Data Set
C        -11.09774         0.67346        -0.73244
C         -9.87930         1.45416        -0.56765
C         -8.60102         0.64057        -0.55280
C         -7.39334         1.41715        -0.13102
C         -6.21606         0.72963         0.18254
C         -4.95775         1.48785         0.44088
C         -3.69284         0.71292         0.66907
C         -2.41390         1.43944         0.66148
C         -1.23833         0.74366         0.72105
C          0.03464         1.49237         1.06622
C          1.27122         0.80027         0.56500
C          2.55553         1.53494         0.64913
C          3.75252         0.75350         0.29772
C          4.98306         1.44974        -0.17574
C          6.26149         0.66552        -0.45929
C          7.52604         1.40193        -0.08549
C          8.77498         0.65775        -0.35537
C         10.00769         1.41349        -0.44973
C         11.22862         0.63264        -0.53951
C         -9.85044         2.82666        -0.60281
C         -8.61639         3.59443        -0.60650
C         -7.35560         2.82283        -0.55946
C         -6.04826         3.56213        -0.52996
C         -4.85004         2.91787         0.05857
C         -3.69553         3.62526         0.28473
C         -2.49472         2.93434         0.93368
C         -1.22838         3.64636         0.50446
C          0.06201         2.92106         0.55706
C          1.34853         3.64981         0.64197
C          2.56999         2.93916         0.53399
C          3.82220         3.64353         0.22244
C          5.01824         2.92887        -0.04246
C          6.23070         3.61956        -0.20999
C          7.51990         2.88768        -0.14745
C          8.73870         3.59153        -0.70375
C         10.00593         2.79798        -0.48074
C         -8.55942         4.96983        -0.69298
C         -7.30839         5.71268        -0.68137
C         -6.10307         5.02810        -0.56302
C         -4.81062         5.71556        -0.59362
C         -3.61142         5.04529        -0.05483
C         -2.46879         5.80686         0.14009
C         -1.24711         5.13272         0.61869
C          0.04861         5.86904         0.63819
C          1.33837         5.10733         0.69131
C          2.60975         5.83198         0.35348
C          3.84064         5.05119         0.06642
C          5.03824         5.73299        -0.22397
C          6.25876         5.02853        -0.26790
C          7.54291         5.74703        -0.24971
C          8.72764         5.05962        -0.32165
C         -7.30609         7.16202        -0.64993
C         -6.14660         7.90676        -0.54312
C         -4.83125         7.24647        -0.61603
C         -3.62195         7.96505        -0.19750
C         -2.42841         7.25294         0.02722
C         -1.20032         7.98052         0.17539
C          0.05795         7.30393         0.26900
C          1.25806         7.98189         0.09612
C          2.48895         7.19984        -0.30959
C          3.79370         7.91592        -0.03217
C          5.04153         7.21181        -0.54613
C          6.32432         7.90970        -0.15325
C          7.48956         7.19686        -0.07724
C         -6.12098         9.34273        -0.36008
C         -4.95555        10.03837        -0.20171
C         -3.65747         9.38949        -0.11402
C         -2.45713        10.09483         0.01233
C         -1.20200         9.41275         0.07526
C          0.03210        10.10716         0.06037
C          1.28018         9.42396         0.03108
C          2.51586        10.11183        -0.02317
C          3.79532         9.41589         0.11257
C          5.11054        10.07382        -0.05352
C          6.26927         9.36465        -0.08955
C        -11.14372        -0.67201        -0.54087
C        -10.00963        -1.40217         0.07306
C         -8.73426        -0.64993         0.23729
C         -7.46872        -1.45918         0.53494
C         -6.20435        -0.66626         0.35184
C         -4.93686        -1.42975         0.08954
C         -3.67090        -0.75685         0.55799
C         -2.48623        -1.43262         0.68663
C         -1.21731        -0.72139         0.70463
C         -0.02194        -1.42884         0.61342
C          1.23092        -0.67315         0.33797
C          2.50980        -1.42305         0.53482
C          3.79713        -0.69137         0.67647
C          5.13382        -1.42962         0.73967
C          6.29154        -0.76814         0.02676
C          7.49413        -1.45121        -0.07968
C          8.73908        -0.72853        -0.35728
C          9.97029        -1.48152        -0.46779
C         11.20302        -0.73003        -0.58061
C         -9.93762        -2.87196         0.15149
C         -8.73291        -3.56036         0.04181
C         -7.45155        -2.77562        -0.27592
C         -6.19627        -3.55794         0.03851
C         -5.03226        -2.92147         0.31652
C         -3.80960        -3.65563         0.75184
C         -2.51817        -2.90392         0.94016
C         -1.19199        -3.70134         1.03605
C          0.05427        -2.87667         0.67374
C          1.24622        -3.55421         0.50708
C          2.50113        -2.84160         0.04255
C          3.81315        -3.55515         0.28849
C          5.00085        -2.89987         0.38802
C          6.30744        -3.62432         0.40263
C          7.54686        -2.88613         0.09306
C          8.72749        -3.60176        -0.17948
C          9.94497        -2.86699        -0.41425
C         -8.68906        -4.97374         0.15345
C         -7.50946        -5.73470        -0.08126
C         -6.22447        -4.99826        -0.38892
C         -5.00631        -5.79341         0.01141
C         -3.80068        -5.18986         0.70401
C         -2.50278        -5.78893         0.16049
C         -1.25002        -4.94025         0.08328
C         -0.00783        -5.76348         0.39887
C          1.29430        -5.03378         0.56790
C          2.53024        -5.77298         0.19675
C          3.75923        -5.00312        -0.05205
C          5.03428        -5.77253        -0.20270
C          6.31776        -5.10876         0.16016
C          7.56245        -5.79613        -0.24057
C          8.72694        -5.04100        -0.29851
C         -7.49542        -7.10622        -0.23398
C         -6.26293        -7.79465        -0.77753
C         -5.00503        -7.10709        -0.29785
C         -3.72549        -7.83603        -0.63671
C         -2.48129        -7.09817        -0.20331
C         -1.22442        -7.85106        -0.45270
C          0.04954        -7.15471        -0.12857
C          1.29203        -7.92123         0.19178
C          2.55580        -7.15078         0.05723
C          3.77918        -7.89729        -0.16530
C          5.00676        -7.23929        -0.19854
C          6.26481        -7.92024        -0.38176
C          7.46992        -7.20951        -0.46694
C         -6.19291        -9.27414        -0.44596
C         -5.03005        -9.94609        -0.26530
C         -3.72272        -9.31111        -0.32795
C         -2.53791       -10.00211        -0.31949
C         -1.24186        -9.34377        -0.38580
C         -0.06241       -10.04116        -0.32508
C          1.25344        -9.40273        -0.04497
C          2.54050       -10.04576        -0.35609
C          3.73101        -9.34307        -0.34636
C          4.99881       -10.01403        -0.56271
C          6.19266        -9.35167        -0.56507
O          0.53222        -5.61797         1.71659
O         -3.87053        -5.65922         2.07379
H         -3.31134        -5.04391         2.60997
O          4.97496         7.30973        -2.01433
H          5.72165         6.79065        -2.38370
O         -7.48407        -1.85753         1.92542
H         -8.31740        -1.49521         2.31662
O         -7.42455        -2.46962        -1.68939
H         -7.15802        -3.31129        -2.14430
O         -1.14883        -4.46214        -1.27065
H         -1.23353        -5.24047        -1.86920
O          2.40953        -2.72500        -1.40918
H          2.62162        -3.59711        -1.80709
O         -6.52206         2.94278        -1.79483
O          6.37312         0.58868        -1.91475
H          5.46547         0.42298        -2.26197
O          5.54633        -1.40284         2.13722
H          4.75004        -1.61707         2.67610
O         -0.36911        -7.27151        -1.52374
O         -8.34961         0.22664        -1.93051
H         -8.01270         1.00452        -2.42599
O          8.52212         3.58374        -2.16346
H          9.35837         3.86258        -2.59229
O         -4.86070        -1.30425        -1.39015
H         -5.71544        -1.66336        -1.75297
O          3.98376         0.98131        -1.15990
O         -6.18804        -4.90260        -1.86454
H         -6.22468        -5.84135        -2.21023
O          2.32488         6.96141        -1.73032
H          3.21325         7.00069        -2.16481
O          6.38218        -4.58191         1.52581
O         -1.05408        -4.17582         2.33627
O          0.11375         1.55500         2.50922
H         -0.68490         2.03042         2.83708
O         -4.51982         1.21686         1.83482
O          3.02295        -1.09607         1.86121
O         -0.73166         5.65120         1.88163
O         -2.58566         3.07503         2.37540
H         -3.36545         2.53320         2.65545
O         -6.29081        -7.64566        -2.23713
H         -5.32892        -7.79919        -2.50926
O         -4.60124         6.46217        -1.83678
O         -3.69869        -7.76959        -2.06844
O          7.62415         2.19060         1.14159
O         -9.63408        -0.64757         1.36463
O          4.35877        -5.22082        -1.39977
O          2.21959         5.71179         1.73663
O         -0.64799         3.14128        -0.72962
O          1.13146         0.23353        -0.79749
O         -3.39889        -3.16271         2.07660
O          1.23288        -8.80099         1.34469
O          3.85789         8.44889         1.29191
H         12.14530        -1.29220        -0.66514
H         12.18841         1.16705        -0.60156
H         10.96722         3.32995        -0.57029
H          9.68094         5.60969        -0.26653
H          8.43732         7.72441         0.11430
H          7.22807         9.90579        -0.10868
H          5.14237        11.17369        -0.06621
H          2.52059        11.20505        -0.14824
H          0.02589        11.20745         0.04054
H         -2.46937        11.19506         0.01622
H         -4.98880        11.13340        -0.10173
H         -7.07914         9.88355        -0.37461
H         -8.27807         7.67853        -0.63432
H         -9.49696         5.54395        -0.74832
H        -10.79870         3.38383        -0.66693
H        -12.00151         1.20191        -1.07374
H        -12.07104        -1.22720        -0.74683
H        -10.87615        -3.44091         0.25457
H         -9.62862        -5.50915         0.36794
H         -8.41113        -7.69462        -0.06027
H         -7.14299        -9.83103        -0.41240
H         -5.06043       -11.03136        -0.07310
H         -2.54442       -11.09848        -0.20697
H         -0.09229       -11.14253        -0.31814
H          2.55132       -11.12305        -0.58363
H          4.98146       -11.10366        -0.71438
H          7.12806        -9.90788        -0.72537
H          8.39367        -7.76346        -0.69482
H          9.68114        -5.53667        -0.53480
H         10.88276        -3.43143        -0.53134
