         661
 CSIRO Nanostructure Databank - Neutral Graphene Oxide Data Set
C          6.06163        31.92299        -1.28711
C          6.01446        33.27262        -1.13425
C          8.35365        27.52429        -1.06678
C          8.15041        28.85730        -0.50089
C          7.15981        29.75295        -1.08009
C          8.20491        31.71171        -0.00621
C          7.14081        31.09968        -0.76163
C          8.10635        33.16775         0.23031
C          7.06284        33.97741        -0.43955
C          8.25558        36.07200         0.12795
C          7.09784        35.34812        -0.34824
C          8.29046        37.46125         0.08696
C         10.67262        23.17607        -1.54770
C         10.64067        24.61146        -1.02436
C          9.57919        25.41468        -1.26331
C         10.60499        27.40583        -0.09109
C          9.47293        26.78954        -0.77677
C         10.59495        28.74244         0.30378
C          9.34961        29.51972         0.24551
C         10.56124        31.63501         0.82855
C          9.36830        30.99685         0.37334
C         10.56259        33.10161         1.05373
C          9.33869        33.89348         0.70572
C         10.67485        36.00378         0.59699
C          9.45606        35.34592         0.46955
C         10.72626        37.43044         0.51326
C          9.50448        38.17585         0.31020
C         10.77345        40.29350         0.29232
C          9.54595        39.57226         0.22972
C         10.77324        41.68524         0.16003
C         13.28258        18.96491        -0.70202
C         13.24015        20.31799        -0.96125
C         11.97619        21.04155        -1.11696
C         13.18933        23.17240        -1.18607
C         11.93326        22.39704        -1.20731
C         13.12750        24.62877        -0.83095
C         11.81410        25.12221        -0.22607
C         12.99410        27.18131         0.46616
C         11.81444        26.62391         0.02422
C         13.10575        28.63064         0.85605
C         11.81588        29.43088         0.78975
C         13.03418        31.62426         0.90502
C         11.82287        30.93640         0.82777
C         13.12516        33.02980         1.46097
C         11.84517        33.84038         1.26530
C         13.20305        35.99056         0.94317
C         11.96145        35.20226         0.59294
C         13.18551        37.36643         0.78393
C         11.95839        38.11465         0.61688
C         13.21396        40.23677         0.72240
C         12.00762        39.54516         0.51264
C         13.27389        41.67476         0.44976
C         12.00939        42.44377         0.05184
C         13.25427        44.60181         0.11025
C         12.05387        43.92140         0.03327
C         13.36441        46.01070        -0.09347
C         15.86471        14.71315         0.10639
C         15.76333        16.08098        -0.20150
C         14.55749        16.78942        -0.29898
C         15.80983        18.95517        -0.68804
C         14.53860        18.29579        -0.19343
C         15.73401        20.32468        -1.31568
C         14.47169        21.07643        -1.03310
C         15.69980        23.20811        -0.88200
C         14.48249        22.46953        -1.03637
C         15.67128        24.61167        -0.53816
C         14.36042        25.22403        -0.28403
C         15.93930        27.48892         0.53968
C         14.14745        26.30778         0.53356
C         15.73151        28.84184         0.44806
C         14.37183        29.43734         0.56820
C         15.61331        31.76745         0.48504
C         14.30538        30.94272         0.56031
C         15.57461        33.08706         1.20507
C         14.40505        33.79207         1.17173
C         15.67547        35.89455         1.02196
C         14.44765        35.25833         1.12466
C         15.75316        37.33952         0.75805
C         14.45679        38.10355         0.65182
C         15.68675        40.22647         1.00828
C         14.47429        39.56001         0.87397
C         15.68875        41.68265         1.41776
C         14.42982        42.45033         0.98591
C         15.79878        44.53245         0.36924
C         14.45965        43.90166         0.66224
C         15.73703        46.02098         0.51686
C         14.57389        46.71059         0.10613
C         15.80960        48.84906        -0.02446
C         14.62523        48.16662        -0.02349
C         15.92679        50.27930        -0.25046
C         18.55747        10.55311         0.90853
C         18.40191        11.93067         0.50719
C         17.25748        12.63070         0.77440
C         18.38601        14.72117        -0.00337
C         17.16126        14.13066         0.63983
C         18.32556        16.15503        -0.35853
C         17.01922        16.83670        -0.46422
C         18.29674        18.98214        -0.81579
C         17.00756        18.31238        -0.60142
C         18.27356        20.38376        -1.39168
C         16.98585        21.12709        -1.12619
C         18.21280        23.26542        -1.02776
C         16.96208        22.49962        -0.97586
C         18.16708        24.70109        -0.69430
C         16.86356        25.34304        -0.48000
C         18.16830        27.65977        -0.54527
C         16.93054        26.80673        -0.27449
C         18.16764        28.99314         0.06765
C         16.92375        29.64326         0.26896
C         18.09350        31.61139         1.07492
C         16.89620        30.99646         0.68712
C         18.10015        32.93477         1.82343
C         16.82026        33.81253         1.70953
C         18.20815        35.89096         1.34039
C         16.97665        35.11161         0.91050
C         18.19582        37.35443         1.30879
C         16.97435        38.08968         1.09368
C         18.14073        40.25615         1.34401
C         16.94399        39.51249         1.13050
C         18.18755        41.68275         1.25870
C         16.97838        42.42326         1.11834
C         18.24574        44.50856         1.02840
C         17.00744        43.82100         0.96551
C         18.26260        45.98941         0.98099
C         16.96401        46.75760         0.77186
C         18.33527        48.81197         0.33014
C         17.09196        48.05598        -0.00944
C         18.28232        50.29164         0.60647
C         17.09296        50.95585        -0.07500
C         18.31043        53.14669         0.29230
C         17.19066        52.41520        -0.47598
C         18.41278        54.59479        -0.09000
C         21.23465         6.62429         2.09851
C         21.08913         7.92351         1.53640
C         19.85628         8.52253         1.30389
C         20.92686        10.43400         0.03376
C         19.73986         9.85261         0.78209
C         20.87512        11.93631        -0.12873
C         19.50912        12.53656        -0.33288
C         20.74922        14.71693        -0.70538
C         19.53671        14.03809        -0.26106
C         20.70441        16.19317        -0.88333
C         19.59562        16.93002        -0.12703
C         20.79784        19.09255        -0.59683
C         19.49468        18.37197        -0.57105
C         20.80243        20.57333        -0.76349
C         19.47695        21.20421        -0.99304
C         20.68639        23.36302        -1.51021
C         19.40940        22.64975        -1.28653
C         20.68605        24.85925        -1.28670
C         19.42648        25.50517        -0.78742
C         20.65481        27.53946        -0.10632
C         19.48572        27.02714        -0.93356
C         20.60596        28.78583         0.47675
C         19.37497        29.58386         0.49896
C         20.53739        31.53775         1.57797
C         19.30589        30.87098         1.08265
C         20.56321        33.02094         1.53762
C         19.38531        33.72018         1.58148
C         20.64301        35.88231         1.85417
C         19.35928        35.17848         1.61665
C         20.65321        37.35189         1.63785
C         19.38441        38.06394         1.40649
C         20.65556        40.24972         1.29113
C         19.39901        39.53198         1.71838
C         20.68451        41.62359         1.16970
C         19.44231        42.37450         1.20306
C         20.74845        44.47589         1.00330
C         19.46948        43.78664         1.09715
C         20.76999        45.98873         1.10154
C         19.50440        46.67973         0.66349
C         20.80796        48.80349         0.43066
C         19.52267        48.08816         0.47155
C         20.81175        50.25393         0.28476
C         19.59916        50.99123         0.30528
C         20.82480        53.06562        -0.15689
C         19.60962        52.38433         0.13958
C         20.85110        54.47826        -0.38769
C         19.60387        55.22942        -0.34592
C         20.84591        57.31381        -0.78360
C         19.65792        56.65748        -0.55962
C         20.89656        58.76275        -0.91452
C         23.90622         4.25698         3.25990
C         22.63164         4.79551         2.99206
C         23.71412         6.63389         1.68911
C         22.48377         6.02262         2.32149
C         23.64359         8.13763         1.63420
C         22.30551         8.77370         1.42034
C         23.38413        10.71406         0.32666
C         22.25583        10.01821         0.62423
C         23.30358        11.87056        -0.64819
C         21.99702        12.62733        -0.49737
C         23.11418        14.66225        -1.59700
C         21.92846        14.03068        -0.88416
C         23.21844        16.17481        -1.42734
C         21.96929        16.91931        -1.19213
C         23.28400        19.10367        -1.26082
C         22.07450        18.36327        -0.83022
C         23.29673        20.52230        -1.34209
C         22.05496        21.28291        -1.15552
C         23.21051        23.40114        -1.70442
C         21.97661        22.62262        -1.48072
C         23.19674        24.81792        -1.08346
C         21.91488        25.49225        -0.76465
C         23.01627        27.10942         0.72558
C         21.83888        26.68437        -0.06868
C         23.02370        28.50755         1.28743
C         21.67720        29.21151         1.46262
C         23.09456        31.47165         1.31296
C         21.82140        30.75537         1.62076
C         23.11938        32.90597         1.30653
C         21.89980        33.64875         1.70226
C         23.18716        35.84094         1.32331
C         21.95592        35.14597         1.77875
C         23.18744        37.24578         1.11589
C         21.89557        37.99165         1.12418
C         23.22085        40.15444         1.15841
C         21.87974        39.47600         1.00227
C         23.15832        41.63544         0.87053
C         21.95012        42.32550         0.95684
C         23.26589        44.49693         0.98244
C         21.93345        43.77251         0.91681
C         23.21958        45.85512         0.31702
C         21.95767        46.61858         0.41766
C         23.30640        48.79379         0.58282
C         21.98410        48.09955         0.40395
C         23.28666        50.19856         0.04554
C         22.04479        50.91621         0.02516
C         23.24447        52.99454        -0.58880
C         22.04008        52.32444        -0.23989
C         23.28500        54.39282        -0.75821
C         22.06669        55.13843        -0.64981
C         23.29796        57.23724        -1.03877
C         22.09295        56.57236        -0.84193
C         23.31900        58.67551        -1.49701
C         22.04070        59.42143        -1.20901
C         23.35975        61.54062        -0.99540
C         22.06359        60.91530        -1.42824
C         25.08067         4.92337         2.92616
C         26.17399         6.92432         1.96579
C         25.04499         6.17335         2.24355
C         26.10839         8.24481         1.36729
C         24.85475         8.85403         1.21552
C         25.96943        10.96873         0.35923
C         24.71032        10.25496         0.81393
C         25.85783        12.16714        -0.50432
C         24.54384        12.74449        -0.73822
C         25.62179        14.66362        -1.85126
C         24.43948        14.00519        -1.26691
C         25.52307        16.10801        -2.29282
C         24.36625        16.87418        -1.67744
C         25.57353        19.03043        -2.09852
C         24.40456        18.34914        -1.65423
C         25.68487        20.45898        -2.01161
C         24.51092        21.17606        -1.69448
C         25.76904        23.32940        -1.39131
C         24.53003        22.66744        -1.98940
C         25.67661        24.62567        -0.71520
C         24.43791        25.29461        -0.49212
C         25.57236        27.19359         0.70923
C         24.33995        26.42172         0.46381
C         25.57647        28.54400         0.97010
C         24.31803        29.27222         1.28373
C         25.51868        31.40395         0.88647
C         24.30146        30.74656         1.14501
C         25.42989        32.85078         0.42909
C         24.29605        33.62767         1.05452
C         25.56596        35.77619         0.70056
C         24.34898        35.07280         1.03512
C         25.57952        37.20492         0.64599
C         24.36207        37.93118         0.76675
C         25.63851        40.13050         0.52587
C         24.31908        39.40647         0.37467
C         25.63686        41.51390         0.54170
C         24.41419        42.30137         0.62382
C         25.67796        44.40199         0.21190
C         24.46085        43.69035         0.52996
C         25.68292        45.83071         0.11197
C         24.50602        46.58817         0.19629
C         25.74399        48.69897        -0.08373
C         24.51744        47.99650         0.15276
C         25.73665        50.11137        -0.30486
C         24.48346        50.80680        -0.33581
C         25.80284        52.96052        -0.86833
C         24.45313        52.19780        -0.80040
C         25.75872        54.41024        -0.73062
C         24.55439        55.08955        -0.84954
C         25.75422        57.25982        -0.92055
C         24.55316        56.54375        -0.93862
C         25.73014        58.68990        -0.87829
C         24.56066        59.40346        -1.02724
C         24.50624        60.83479        -0.84947
C         27.28699         8.93454         0.95456
C         28.38753        10.85485        -0.13387
C         27.24386        10.21427         0.38147
C         28.31695        12.14849        -0.70798
C         27.02536        12.77623        -0.92699
C         28.20707        14.85669        -1.86179
C         26.97867        14.03046        -1.71128
C         28.16445        16.23034        -2.21139
C         26.84515        16.86089        -2.29134
C         28.49322        19.31509        -2.51232
C         26.64015        18.19438        -2.60262
C         28.30188        20.55794        -1.98556
C         26.98787        21.29997        -2.27822
C         28.20656        23.22045        -1.02373
C         26.96530        22.63277        -1.50452
C         28.14800        24.62965        -0.59349
C         26.86056        25.22650        -0.24730
C         28.09350        27.11956         1.05233
C         26.83451        26.43665         0.59051
C         28.03419        28.54566         1.63033
C         26.80406        29.29440         1.11418
C         28.00052        31.45658         1.25442
C         26.75482        30.67951         0.99719
C         28.05796        32.82585         0.66779
C         26.77343        33.57665         0.40073
C         28.00532        35.75765         0.40105
C         26.79480        35.06421         0.47061
C         28.03676        37.20039         0.38126
C         26.81804        37.92289         0.45522
C         28.09298        40.01907         0.26667
C         26.85900        39.35855         0.42937
C         28.16961        41.48903         0.29498
C         26.90323        42.26985         0.47168
C         28.12877        44.33003        -0.28905
C         26.89107        43.69059         0.07760
C         28.07389        45.80364        -0.66663
C         27.01764        46.51980         0.17069
C         28.19327        48.66786        -0.30719
C         26.96863        47.99212        -0.14128
C         28.21822        50.08041        -0.39554
C         26.98570        50.81091        -0.44131
C         28.27277        52.93953        -0.50671
C         27.02677        52.21833        -0.55740
C         28.26929        54.33615        -0.52127
C         27.01570        55.14028        -0.30463
C         27.09319        56.55092        -0.89605
C         29.46845        12.82554        -1.13173
C         30.64867        14.86478        -1.76188
C         29.43908        14.16985        -1.60809
C         30.65047        16.25203        -1.97655
C         29.42718        16.98283        -2.18944
C         30.78719        19.06019        -1.84575
C         29.57730        18.41062        -2.20302
C         30.80081        20.47640        -1.54045
C         29.59305        21.33642        -1.84833
C         30.66345        23.19577        -0.53234
C         29.46056        22.59926        -1.04971
C         30.65046        24.50140        -0.01089
C         29.42897        25.30456        -0.12111
C         30.56648        27.24155         0.86760
C         29.38376        26.57729         0.61327
C         30.53228        28.67233         1.19415
C         29.34131        29.30209         1.46346
C         30.60163        31.53158         1.80067
C         29.28488        30.77090         1.65031
C         30.57614        32.96766         1.31243
C         29.36316        33.56412         0.72029
C         30.50811        35.82751         0.82643
C         29.30325        35.03398         0.44751
C         30.54079        37.16466         0.18224
C         29.26911        37.90972         0.21780
C         30.59503        40.02219         0.00098
C         29.31326        39.30688         0.13231
C         30.61268        41.45907        -0.19125
C         29.29204        42.11091        -0.50705
C         30.57943        44.27484        -0.79003
C         29.30079        43.61671        -0.44049
C         30.62487        45.79646        -0.85035
C         29.39479        46.53699        -0.55730
C         30.70344        48.62163        -0.46001
C         29.43306        47.90442        -0.40956
C         30.69517        50.02101        -0.44970
C         29.48079        50.78017        -0.45185
C         29.48921        52.17989        -0.48158
C         31.90923        16.92686        -1.88832
C         33.31153        19.00775        -1.69184
C         31.98726        18.29491        -1.76214
C         33.21054        20.34253        -0.98919
C         31.94501        21.07129        -1.02935
C         33.04594        22.97129         0.07962
C         31.91641        22.43544        -0.50945
C         33.04484        24.33485         0.63493
C         31.81367        25.13942         0.52308
C         33.04954        27.27989         1.00342
C         31.80697        26.51355         0.80018
C         32.97097        28.72465         0.73226
C         31.78669        29.41857         1.02780
C         33.00894        31.56178         1.26087
C         31.80579        30.82524         1.23294
C         33.02145        32.96082         1.44342
C         31.77984        33.66580         1.33083
C         33.06080        35.86942         0.91187
C         31.78938        35.14607         1.16973
C         33.08529        37.20064         0.57159
C         31.83833        37.88630         0.14409
C         33.08655        40.03418        -0.32967
C         31.79903        39.34295         0.03448
C         33.09287        41.47169         0.18213
C         31.80786        42.18128        -0.21033
C         33.08172        44.28085        -0.58109
C         31.84062        43.56646        -0.51586
C         33.09825        45.69758        -0.66850
C         31.92321        46.47759        -0.66662
C         31.91578        47.87473        -0.52131
C         34.32483        20.87973        -0.44058
C         35.53879        23.02598        -0.04881
C         34.32651        22.18494         0.29587
C         35.58920        24.38339         0.19721
C         34.38788        25.05429         0.77181
C         35.55822        27.26634         0.39133
C         34.39986        26.54697         0.89094
C         35.47736        28.71801         0.01232
C         34.20085        29.45992         0.40121
C         35.55001        31.52931         1.17954
C         34.24622        30.91210         0.79065
C         35.58746        32.97492         1.24223
C         34.31415        33.73279         1.59476
C         35.57195        35.83544         1.17454
C         34.31906        35.05363         0.81350
C         35.58286        37.32308         0.91706
C         34.31960        37.96859         0.47754
C         35.59130        40.03031         0.01607
C         34.33341        39.29461         0.11290
C         35.55295        41.43040        -0.25156
C         34.35812        42.17870        -0.25388
C         34.31403        43.55074        -0.51213
C         36.73761        25.17523        -0.10585
C         37.89600        27.37772        -0.35555
C         36.72999        26.59042        -0.03170
C         37.94492        28.75803        -0.08286
C         36.77078        29.41980         0.35675
C         38.17645        31.46765         1.06825
C         36.83879        30.72307         0.99766
C         38.05496        32.97335         0.89371
C         36.82528        33.67723         1.10935
C         38.11033        35.87521         1.27735
C         36.83460        35.09745         1.11696
C         38.04323        37.25501         0.65916
C         36.86958        37.96818         0.54867
C         36.80748        39.33725         0.12897
C         39.15992        29.54591        -0.22617
C         40.41434        31.65796        -0.07215
C         39.23908        30.84932         0.17982
C         40.43700        32.99208         0.18315
C         39.25609        33.71710         0.64363
C         39.29711        35.09166         0.80123
O         15.16246        26.72443         1.40194
O         21.66250        38.62275        -0.19840
O         20.62541        24.33418        -2.62840
O         30.93318        35.81136         2.21080
O         35.49814        36.79122         2.29060
O         22.98138         8.85146         2.73054
O         34.04177        30.54634        -0.61499
O         27.87222        42.05778         1.59652
O         21.13806        31.13133         2.87017
O         17.52342        46.67754         2.10419
O         27.55263        18.83688        -3.42456
O         17.14706        27.51992        -1.57698
O         30.53498        44.98890        -2.08979
O         31.27567        37.21167        -1.08834
O         33.87479        27.00017         2.18837
O         19.05384        25.02095         0.52322
O         29.64415        34.12435        -0.63711
O         20.94570        16.67379        -2.23546
O         10.97669        33.65098         2.40159
O         13.16872        24.24680        -2.23037
O         17.72666        16.31396        -1.67975
O         12.97441        41.92397        -0.96041
O         14.13180        30.17854        -0.70172
O         23.18077        24.57073        -2.55786
O          8.25653        33.55882         1.64185
O         22.33937        45.96621        -0.84829
O         25.40925        11.21069         1.69951
O         15.19678        37.71468        -0.57444
O         22.10882        34.33204         2.99307
O         23.50754        26.09765         1.65454
O         14.13955        43.45971         2.02344
O         28.94519        25.50287        -1.51163
O         26.20172        13.85968        -2.95951
O         27.42712        26.14854         1.94964
O         36.15313        30.77658         2.31961
O         20.01323        21.11559         0.37175
O         25.12356        52.44412        -2.06775
O         20.69396        36.81588         3.01163
O         28.35523        31.31153         2.66766
O         27.53157        32.93140        -0.68799
O         12.37665        28.92103         2.07476
O          8.24122        28.89995         0.96259
O         33.77338        24.42150         1.92624
O         21.66856        18.68206         0.54920
O         23.76204        28.69196         2.52909
O         14.51549        18.55904         1.27023
H         15.27020        18.07822         1.67379
O         27.68331        45.85591        -2.05969
H         28.43855        45.50211        -2.58233
O         22.90519        14.40015        -3.01841
H         23.53434        14.98364        -3.51555
O         23.46579        48.92294         2.05678
H         23.10124        48.10841         2.46855
O         13.26392        32.77273         2.89755
H         12.35382        32.83288         3.28243
O         29.84600        21.81662        -3.22555
H         28.98062        22.14101        -3.57838
O         38.24523        36.06551         2.74288
H         37.37890        36.43176         3.04559
O         15.96272        44.30329        -1.07944
H         16.59792        44.96745        -1.42590
O         20.84860         9.89198        -1.32699
H         21.66199        10.21127        -1.80002
O         24.66569        22.71405        -3.43588
H         24.41917        23.62446        -3.71773
O         23.69582         6.21610         0.28337
H         23.76782         5.23850         0.26398
O         11.76790        24.47546         1.08357
H         11.02607        24.86662         1.59180
O         26.90587        55.33943         1.14856
H         26.92713        54.45875         1.57878
O         19.17144        12.20301        -1.72084
H         19.45984        11.26987        -1.86672
O         23.51705        44.79427         2.39692
H         23.60090        43.94230         2.87493
O         18.17078        32.51637         3.22256
H         19.04106        32.08804         3.38060
O         28.97783        41.77231        -1.89860
H         29.69111        42.13546        -2.46595
O         17.26866        47.55954        -1.39293
H         17.26171        48.33658        -1.99217
O         24.03231        39.46396        -1.04127
H         23.15210        39.03674        -1.18273
O         25.13778        16.04473        -3.71540
H         25.71567        15.35155        -4.11681
O         34.45198        34.67962        -0.59027
H         33.96462        35.32345        -1.14616
O         27.59021        56.45466        -2.23741
H         27.57408        57.34711        -2.63892
O         33.10980        40.09710        -1.78440
H         32.84728        39.21777        -2.13098
O         27.83584        28.43245         3.05831
H         27.32113        27.60516         3.21221
O         15.64794        41.61750         2.87673
H         15.27763        42.47777         3.18687
O         33.11704        41.39366         1.63132
H         33.14458        42.30552         1.98820
O         20.95688        61.55880        -0.78970
H         21.06471        61.46839         0.17877
O         19.86717        16.85771         1.29008
H         20.58263        17.51582         1.47951
O         27.48074        46.40488         1.55519
H         26.78808        46.78069         2.13860
O         16.48989        34.29397         3.02857
H         16.69358        33.57682         3.67061
O         18.38890        20.23279        -2.83783
H         17.53003        19.85250        -3.15084
O         19.74965        27.34788        -2.31340
H         18.88422        27.37627        -2.77920
O         35.46088        28.65583        -1.46422
H         35.07762        29.51058        -1.77449
O         34.41990        21.83947         1.71536
H         34.30075        22.68524         2.21601
O         23.22039        11.24628        -1.98556
H         23.13608        11.98147        -2.63624
O         23.58189        40.02018         2.56324
H         22.90725        40.48226         3.10409
O         19.45551        39.56186         3.21627
H         19.75588        38.67706         3.52940
O         38.68542        31.30773         2.42638
H         37.89462        31.27201         3.01530
O         21.15556        28.69516         2.70706
H         21.86334        28.80047         3.38178
O         17.45849        52.49620        -1.88464
H         18.37719        52.19314        -2.04153
O         34.44133        34.08283         2.99871
H         34.31357        33.27178         3.53436
O         20.90447        46.33172         2.51999
H         20.03784        46.17647         2.95450
O         17.20520        14.63538         2.03838
H         18.13690        14.58908         2.34442
O         10.58011        23.22320        -2.98337
H         11.40348        23.65773        -3.30184
O         15.66229        20.02505        -2.78361
H         15.39502        20.85466        -3.23637
O         15.71259        32.18969        -0.91704
H         15.39416        31.42963        -1.45917
O         33.77611        19.22519        -3.04235
H         33.11506        19.78407        -3.50166
O         17.15622        34.79839        -0.49198
H         16.84678        35.56007        -1.02620
O         23.42438        58.63241        -2.96835
H         24.18529        58.05276        -3.18652
O         12.16547        34.82219        -0.81931
H         12.46570        35.61904        -1.30759
O         17.90955        53.11821         1.70671
H         18.56623        53.64491         2.20978
O         25.01038        32.75685        -0.98144
H         25.82666        32.56941        -1.50140
O         30.86439        31.58704         3.24087
H         29.99238        31.69211         3.68604
O         27.03680        21.65314        -3.68452
H         26.97391        20.81425        -4.19304
O         18.04215        50.41283         2.04423
H         17.90665        51.37924         2.22122
H          5.26261        31.40700        -1.83927
H          5.18525        33.85321        -1.56412
H          7.57670        27.10910        -1.72620
H          6.42696        29.34571        -1.79215
H          6.26869        35.93553        -0.77171
H          7.38143        38.02370        -0.17275
H          9.77138        22.62093        -1.17999
H          8.72350        25.02427        -1.83602
H          8.61330        40.12889         0.05460
H          9.81476        42.22568         0.15926
H         12.34019        18.39992        -0.63078
H         11.04522        20.45481        -1.14822
H         11.12980        44.46560        -0.21545
H         12.46270        46.57388        -0.37694
H         14.94048        14.13028         0.24665
H         13.60483        16.25493        -0.15528
H         13.67494        48.71130        -0.13358
H         15.03749        50.81673        -0.61917
H         17.71780        10.07760         1.44136
H         16.44218        12.13017         1.32247
H         16.21191        52.92654        -0.29937
H         17.48271        55.18298        -0.06262
H         20.32436         6.07977         2.39594
H         18.93501         7.98159         1.57208
H         18.71908        57.22872        -0.50460
H         19.96500        59.33170        -0.76830
H         23.97063         3.30342         3.80291
H         21.73824         4.27448         3.36657
H         23.35881        62.62812        -0.82888
H         21.94358        61.10084        -2.53389
H         26.05159         4.50937         3.23542
H         27.16427         6.53745         2.25188
H         26.66750        59.22375        -0.65257
H         25.43470        61.34915        -0.55496
H         28.25677         8.42206         1.03811
H         29.36405        10.35256        -0.06859
H         29.23049        54.87170        -0.51539
H         27.81757        57.15470        -0.27596
H         30.44969        12.34788        -0.99350
H         31.60088        14.34598        -1.57962
H         31.65196        50.56341        -0.48580
H         30.44913        52.71712        -0.49000
H         32.82387        16.31780        -1.83469
H         34.07702        18.36423        -1.19204
H         34.07143        46.20979        -0.62922
H         32.87393        48.41306        -0.46517
H         35.26510        20.30683        -0.45082
H         36.42212        22.52622        -0.47550
H         36.50506        41.95148        -0.44035
H         35.25231        44.09409        -0.70494
H         37.64383        24.66260        -0.46171
H         38.81259        26.85759        -0.67057
H         38.99397        37.74290         0.39501
H         37.75128        39.88033        -0.03054
H         40.01171        29.08994        -0.75457
H         41.29943        31.16420        -0.50120
H         41.34768        33.57578        -0.01611
H         40.24349        35.62730         0.63021
