         429
 CSIRO Nanostructure Databank - Neutral Graphene Oxide Data Set
C          1.46287         1.91422        -0.41981
C          1.40928         3.30779        -0.32022
C          2.64406         1.23240        -0.16093
C          2.53543         4.05409         0.09206
C          1.32943         6.23476        -0.26911
C          1.31317         7.61334        -0.40140
C          2.50984         5.52546         0.13104
C          2.41494         8.41520        -0.05209
C          1.26810        10.52244        -0.70188
C          1.26882        11.88436        -0.91459
C          2.42046         9.83214        -0.23098
C          2.42350        12.66613        -0.65103
C          1.34685        14.76767        -1.51938
C          1.34279        16.09958        -1.81802
C          2.44294        14.10372        -0.85657
C          2.36511        17.00030        -1.29074
C          2.56578        18.35259        -1.83885
C          3.80448         1.94198         0.24133
C          3.72186         3.35830         0.41499
C          5.03473         1.24654         0.41278
C          4.88736         4.08168         0.95938
C          3.64681         6.26306         0.44267
C          3.57593         7.75699         0.64654
C          4.88237         5.60492         0.90486
C          4.88693         8.46751         0.40893
C          3.60141        10.59518         0.04818
C          3.57029        11.99768        -0.13827
C          4.86252         9.89339         0.29632
C          4.74249        12.80269         0.22851
C          3.61519        14.84227        -0.58151
C          3.60573        16.30774        -0.66621
C          4.82409        14.21357        -0.17189
C          4.88109        17.02653        -0.69585
C          3.71762        19.03199        -1.62199
C          4.90143        18.41095        -1.04761
C          6.25599         1.91741         0.63561
C          6.20852         3.36523         1.00020
C          7.47685         1.25320         0.58294
C          7.46052         4.18634         0.93823
C          6.16169         6.35307         0.81518
C          6.12989         7.76699         0.57137
C          7.40278         5.67395         0.83138
C          7.36109         8.47872         0.51772
C          6.06699        10.61200         0.30977
C          6.06800        12.05942         0.45900
C          7.37657         9.91755         0.07339
C          7.31463        12.82239         0.31428
C          6.04851        14.91740        -0.10367
C          6.07721        16.33406        -0.40870
C          7.29090        14.22471         0.14798
C          7.31013        17.05271        -0.39566
C          6.10338        19.11801        -0.97719
C          7.31708        18.46748        -0.63162
C          8.74445         1.98459         0.45089
C          8.71581         3.49586         0.48794
C         10.03851         1.34633         0.66261
C          9.97914         4.21099         0.71073
C          8.61410         6.38783         0.76526
C          8.59690         7.81429         0.70194
C          9.93507         5.69851         0.49407
C          9.81926         8.57580         0.81781
C          8.57802        10.70648         0.54906
C          8.53117        12.10199         0.52322
C          9.80880         9.99022         0.78535
C          9.72951        12.91067         0.81076
C          8.53572        14.96164         0.09699
C          8.53818        16.37169        -0.15517
C          9.76277        14.31575         0.36388
C          9.76442        17.09385        -0.16243
C          8.53461        19.18344        -0.55229
C          9.75457        18.52263        -0.32273
C         11.21532         2.08070         0.77709
C         11.18046         3.54331         0.78695
C         12.47753         1.42705         0.90196
C         12.42989         4.28195         0.94688
C         11.11022         6.38174         1.14662
C         11.06803         7.88688         1.20402
C         12.41434         5.69180         1.07337
C         12.35298         8.59760         1.14827
C         11.04380        10.69755         0.94068
C         11.04280        12.16771         1.01065
C         12.28950        10.02427         1.00962
C         12.27347        12.89950         0.69016
C         11.00384        15.00289         0.25616
C         11.01119        16.41624        -0.03339
C         12.24014        14.28816         0.39695
C         12.23373        17.13989        -0.19925
C         10.98266        19.23708        -0.21935
C         12.22108        18.59289        -0.18321
C         13.68208         2.13213         1.04123
C         13.65667         3.59042         1.07908
C         14.92116         1.44854         1.11763
C         14.84785         4.32074         1.30444
C         13.60990         6.43203         1.21024
C         13.57838         7.88478         1.19475
C         14.85552         5.73877         1.30356
C         14.82244         8.58350         1.14875
C         13.49989        10.78010         0.94816
C         13.47908        12.15871         0.67300
C         14.77503        10.06107         1.15866
C         14.71133        12.86305         0.27094
C         13.47107        14.99535         0.14262
C         13.44961        16.37586        -0.22512
C         14.71093        14.32643         0.15424
C         14.67413        16.93735        -0.64951
C         13.41779        19.40681         0.05936
C         14.65897        19.07515        -0.43831
C         16.14096         2.12887         1.32228
C         16.08617         3.58238         1.58720
C         17.38247         1.48659         1.30975
C         17.40386         4.36806         1.58235
C         16.10778         6.47296         1.29884
C         16.06895         7.91089         1.14730
C         17.34568         5.81355         1.31494
C         17.31788         8.60915         1.00867
C         16.05226        10.79104         0.95385
C         16.01629        12.17196         0.39373
C         17.29501        10.04592         0.54377
C         17.26781        12.95202         0.40543
C         15.94361        15.01803         0.00992
C         15.93719        16.40553        -0.32814
C         17.20464        14.34803         0.13917
C         17.15096        17.20389        -0.31458
C         15.99882        19.49604        -0.13850
C         17.14024        18.68500        -0.28635
C         18.62456         2.20444         1.28315
C         18.63893         3.63081         1.30414
C         19.84560         1.51817         1.10260
C         19.83412         4.35753         1.04942
C         18.59707         6.51299         1.15891
C         18.55631         7.96306         1.05833
C         19.79982         5.80310         1.04682
C         19.79277         8.71310         0.88624
C         18.50657        10.84675         1.02694
C         18.48196        12.28751         0.55256
C         19.77737        10.11135         0.70932
C         19.68998        13.00292         0.33239
C         18.40375        15.09867         0.04808
C         18.35997        16.52675        -0.11497
C         19.65083        14.40198         0.11303
C         19.65206        17.25711         0.17218
C         18.41171        19.35693        -0.28328
C         19.64106        18.70405        -0.23692
C         21.05001         2.22311         0.87647
C         21.03705         3.64438         0.83364
C         22.27312         1.52859         0.62764
C         22.26415         4.32141         0.29138
C         21.11718         6.53139         1.13702
C         21.04818         8.00115         0.77422
C         22.30643         5.80885         0.52827
C         22.22072         8.68071         0.53767
C         20.93642        10.86048         0.41318
C         20.92802        12.26691         0.22621
C         22.22589        10.15580         0.49981
C         22.10816        12.97499        -0.18051
C         20.87623        15.11288        -0.16421
C         20.87755        16.50524        -0.28135
C         22.07684        14.35046        -0.37548
C         22.10257        17.22368        -0.51738
C         20.88224        19.37474        -0.36526
C         22.11339        18.68811        -0.42684
C         23.53382         2.16085         0.52083
C         23.57762         3.60812         0.56193
C         24.65575         1.32543         0.17261
C         24.75765         4.38374         0.41563
C         23.45244         6.48455         0.21165
C         23.38644         7.95906        -0.09962
C         24.72456         5.78845         0.05787
C         24.72277         8.64547         0.05429
C         23.48253        10.90862         0.22538
C         23.33095        12.17596        -0.59160
C         24.76873        10.13478         0.11853
C         24.62101        12.98530        -0.61944
C         23.22849        15.07164        -0.96544
C         23.26180        16.54320        -0.84936
C         24.50562        14.33929        -1.24256
C         24.60904        17.18451        -0.61225
C         23.35380        19.36612        -0.47626
C         24.59000        18.69184        -0.58189
C         25.99086         1.70945         0.36166
C         26.05228         3.82437         0.58055
C         27.17639         1.33263        -0.28195
C         27.23152         4.38009         0.03003
C         25.93105         6.46114        -0.19520
C         25.92249         7.93290        -0.55398
C         27.18614         5.77807        -0.26611
C         27.23218         8.64322        -0.14896
C         25.99459        10.80564        -0.38850
C         25.93230        12.27403        -0.62465
C         27.14436        10.10368        -0.57388
C         27.11815        12.93809        -1.25918
C         25.76015        15.12104        -1.57599
C         25.75417        16.60598        -1.43618
C         27.06752        14.38135        -1.66177
C         27.06911        17.38255        -1.53007
C         25.83476        19.32095        -0.46504
C         27.07239        18.63678        -0.67456
C         28.37416         2.13636        -0.30142
C         28.40975         3.59124        -0.21174
C         29.56585         1.46477        -0.62543
C         29.60503         4.28731        -0.57912
C         28.41575         6.46320        -0.54868
C         28.45066         7.89257        -0.63851
C         29.62032         5.72576        -0.69052
C         29.64600         8.56090        -0.82324
C         28.37611        10.79427        -1.00821
C         28.42565        12.28180        -1.01129
C         29.64879        10.02964        -1.03845
C         29.60494        12.94853        -1.19906
C         28.33927        15.16046        -1.56617
C         28.31757        16.50737        -1.37347
C         29.62210        14.35109        -1.81311
C         29.58500        17.29676        -1.34160
C         28.28468        19.20662        -0.33331
C         29.55924        18.61257        -0.64743
C         30.79602         2.13716        -0.82872
C         30.80966         3.57161        -0.83570
C         31.99148         1.42064        -1.04153
C         32.02961         4.25713        -1.12782
C         30.85268         6.42040        -0.95634
C         30.88267         7.85753        -0.99904
C         32.05360         5.70137        -1.16465
C         32.09936         8.56778        -1.18416
C         30.91105        10.78053        -0.70456
C         30.87274        12.23289        -1.13199
C         32.14116        10.02519        -1.15338
C         32.05258        12.91569        -1.24511
C         30.90046        15.07912        -1.45548
C         30.90314        16.55516        -1.43869
C         32.06377        14.37371        -1.24582
C         32.15937        17.23442        -0.97351
C         30.72122        19.22945        -0.24333
C         32.06157        18.66097        -0.42502
C         33.21229         2.08997        -1.28948
C         33.20030         3.52081        -1.38665
C         34.43104         1.36502        -1.36230
C         34.43605         4.23447        -1.73899
C         33.28646         6.40636        -1.35966
C         33.32093         7.84295        -1.36608
C         34.49781         5.69147        -1.52059
C         34.56548         8.51561        -1.51779
C         33.30061        10.71007        -1.37294
C         33.37516        12.22351        -1.46991
C         34.56767         9.99445        -1.62873
C         34.46382        12.72782        -0.51234
C         33.29107        15.02814        -0.77642
C         33.28114        16.38375        -0.53582
C         34.48948        14.24101        -0.44646
C         34.34083        16.94603         0.38214
C         33.18802        19.18542         0.36313
C         34.34718        18.45013         0.56558
C         35.69015         1.99475        -1.53648
C         35.72575         3.45619        -1.82272
C         36.88765         1.31048        -1.46078
C         36.98318         4.18335        -1.53230
C         35.74140         6.35558        -1.44749
C         35.78217         7.79114        -1.42714
C         36.96808         5.60204        -1.34522
C         37.03635         8.45483        -1.17092
C         35.87625        10.75327        -1.45254
C         35.83570        12.11307        -0.82621
C         37.18712         9.93781        -1.51223
C         36.96813        12.75370        -0.38957
C         35.64224        14.85649        -0.03237
C         35.71294        16.37311         0.04915
C         36.87405        14.10207         0.19238
C         36.71165        16.85931         1.06824
C         35.48143        19.00423         1.19318
C         36.61119        18.20102         1.54304
C         38.17330         2.00193        -1.83421
C         38.16306         3.45736        -1.40789
C         39.39497         1.25752        -1.37310
C         39.36692         4.11201        -1.01255
C         38.15928         6.26867        -0.97116
C         38.15551         7.70041        -0.83793
C         39.37164         5.51859        -0.77742
C         39.28814         8.31801        -0.05403
C         38.37934        10.63250        -0.82311
C         38.30844        12.09787        -0.42994
C         39.49219         9.79955        -0.27882
C         39.42080        12.68397         0.42775
C         37.90038        14.68007         0.91380
C         37.76216        16.02220         1.48162
C         39.30127        14.10261         1.01245
C         38.70145        16.50031         2.42254
C         37.64086        18.71254         2.36108
C         38.68425        17.87406         2.81462
C         40.50415         1.89696        -0.95414
C         40.55725         3.34349        -0.82381
C         41.74167         3.99388        -0.46954
C         40.59803         6.15493        -0.39081
C         40.60475         7.57303        -0.07495
C         41.76220         5.37725        -0.27296
C         41.70523         8.23964         0.41114
C         40.54690        10.39300         0.58833
C         40.39962        11.75502         1.06714
C         41.64131         9.60459         0.84899
C         41.00214        12.10586         2.24955
C         39.88691        14.27091         2.39712
C         39.60005        15.54384         3.16011
C         40.72561        13.34339         2.92034
C         40.83653        16.21478         3.69625
C         39.74551        18.38430         3.61787
C         40.83642        17.56086         3.96952
O          8.66553         2.85021        -0.82264
O         35.25232        10.61890        -2.76950
O         23.00573        10.89700         1.58692
O         14.62713        18.07534        -1.44319
O         16.73681         3.97200         2.83484
O         35.03046         3.83296        -3.04979
O         39.57664        10.32009        -1.62319
O          5.23656        12.54085         1.57627
O         25.45637        16.00128        -2.71542
O          4.64128         4.86183         2.16652
O         10.28543        12.71153         2.15250
O         26.99912        13.32046        -2.68350
O         39.42619        12.81935        -1.03549
O         30.31529        17.21583        -2.60315
O          6.97632         3.65584         2.21577
O         24.94850         9.29177         1.32808
O         32.51453        18.36626        -1.81036
O         15.35353        12.20065        -0.93041
O          2.56247        16.92894         0.15168
O         23.52741        14.44148        -2.31522
O         10.86522         7.02678         2.41722
O         28.98282        10.33156        -2.30015
O         25.43880        12.99441         0.58111
O         15.58093        10.63914         2.30496
O         26.17186         2.69808         1.37174
O         38.22292         1.99590        -3.30487
H         37.43883         2.49130        -3.62738
O         34.01390        16.41319         1.70913
H         33.22006        16.88288         2.04022
O         38.82261        15.12586         4.35175
H         38.66188        15.93236         4.88721
O         19.75261        17.28005         1.64985
H         18.99836        17.81249         1.98191
O         25.83114         8.05166        -1.99194
H         24.89312         7.89493        -2.25235
O         18.42010        10.89448         2.47699
H         19.23551        11.31484         2.82157
O          3.29806         7.91150         2.09897
H          3.86158         7.26540         2.57906
O         37.54249         9.85002        -2.91391
H         37.65050        10.75789        -3.26576
O         23.11074        11.73072        -1.95673
H         23.06153        12.54446        -2.51751
O         21.41843         6.53662         2.58094
H         22.18403         7.13284         2.72894
O         36.11070        16.87595        -1.24793
H         36.98669        16.49791        -1.46997
O         10.15911         5.86380        -0.95437
H          9.65865         5.15684        -1.41778
O         38.81288         8.24490         1.34145
H         38.79420         7.29831         1.59782
O         29.65378        14.10611        -3.24665
H         28.80095        13.66643        -3.47921
O         30.96973        10.79871         0.75699
H         31.82691        11.20478         1.01510
O         17.31442         9.98892        -0.90660
H         16.75929        10.71444        -1.27031
O          7.51747         9.85786        -1.41344
H          8.30839         9.30783        -1.60283
O         23.11204         8.02540        -1.54800
H         22.24912         7.58915        -1.71756
O         22.10264         4.20414        -1.18873
H         22.94332         4.50686        -1.59571
O         34.07664        12.23268         0.80799
H         34.61797        12.70229         1.47818
O         27.42721         8.60504         1.28340
H         26.62635         8.99637         1.71486
O         33.78214        12.63467        -2.79153
H         33.15656        12.26041        -3.44560
O         24.96532        16.76258         0.75728
H         24.32686        17.17808         1.37606
O         40.11354        14.97311         0.16545
H         40.06561        14.59539        -0.74442
O         27.16344        17.89332        -2.88183
H         26.81724        17.18967        -3.47875
H          0.56562         1.35994        -0.72829
H          0.46471         3.80989        -0.56431
H          2.69422         0.14028        -0.27326
H          0.42257         5.68036        -0.54058
H          0.40449         8.07622        -0.81036
H          0.34227         9.96693        -0.90083
H          0.34698        12.35989        -1.27378
H          0.52186        14.15391        -1.90617
H          0.57116        16.51167        -2.48506
H          1.74444        18.81416        -2.40721
H          5.05289         0.16204         0.22970
H          3.82203        20.06203        -1.99478
H          7.48892         0.16273         0.43360
H          6.12133        20.18892        -1.22880
H         10.07107         0.25254         0.77825
H          8.52760        20.27386        -0.69785
H         12.50367         0.32739         0.87467
H         10.94909        20.33661        -0.21207
H         14.93168         0.35374         1.00702
H         13.29874        20.29256         0.70126
H         17.41505         0.39352         1.18667
H         16.16118        20.53868         0.17897
H         19.85219         0.41843         1.08775
H         18.40313        20.45138        -0.40883
H         22.23760         0.43026         0.56725
H         20.88377        20.47216        -0.45900
H         24.43458         0.37214        -0.32970
H         23.35702        20.46560        -0.42039
H         27.20196         0.38456        -0.83977
H         25.87159        20.38695        -0.18933
H         29.54921         0.36767        -0.70690
H         28.29246        20.16860         0.20322
H         31.97773         0.32164        -0.99508
H         30.64765        20.16114         0.33959
H         34.40346         0.27459        -1.21883
H         33.14804        20.23623         0.69160
H         36.89007         0.22519        -1.27721
H         35.47990        20.06981         1.46795
H         39.38505         0.16090        -1.46250
H         37.60873        19.76270         2.68595
H         41.40488         1.32690        -0.67952
H         42.66394         3.41083        -0.33524
H         42.71220         5.85228         0.00592
H         42.66895         7.72246         0.51860
H         42.51362        10.01936         1.37412
H         41.65930        11.38431         2.75422
H         41.17400        13.50183         3.91144
H         41.69543        15.59356         3.98721
H         39.75318        19.45039         3.88343
H         41.70790        18.01594         4.46302
