         324
 CSIRO Nanostructure Databank - Neutral Graphene Oxide Data Set
C         30.51371        57.28578        -0.17763
C         30.45969        58.69798        -0.19271
C         29.41199        59.39619        -0.80673
C         30.59935        61.52969        -0.66630
C         29.47187        60.79505        -0.99461
C         32.97084        53.04262         0.11159
C         32.87270        54.41650         0.37422
C         31.69733        55.16212         0.08826
C         32.77290        57.23373         1.00078
C         31.63484        56.55461         0.25238
C         32.81309        58.75413         0.85846
C         31.59241        59.48595         0.34628
C         32.91569        61.56772         0.20165
C         31.73167        60.90145        -0.06509
C         35.31738        48.73033         0.09799
C         35.38357        50.08673        -0.04213
C         34.22690        50.96591        -0.11762
C         35.16762        53.00017         1.24502
C         34.17089        52.28251         0.31214
C         35.29450        54.45382         0.87623
C         34.09376        55.15842         0.69620
C         35.32026        57.27042         0.79840
C         34.09848        56.56666         0.73569
C         35.32075        58.73785         0.80430
C         34.11273        59.45203         0.76715
C         35.34448        61.56562         0.58222
C         34.12093        60.87533         0.57268
C         37.65324        44.25400         0.09517
C         37.72813        45.76787         0.18654
C         36.56968        46.47782         0.12351
C         37.85173        48.59814         0.43918
C         36.50874        47.91903         0.55072
C         37.88828        50.04744         0.39513
C         36.71995        50.71839        -0.22188
C         37.73936        52.99399         1.14921
C         36.51152        52.39453         1.52054
C         37.77856        54.38457         0.89176
C         36.53366        55.13482         0.86570
C         37.83899        57.28042         0.96936
C         36.53601        56.54929         0.77747
C         37.78639        58.72800         0.56404
C         36.56030        59.44018         0.71613
C         37.82795        61.54122         0.59072
C         36.57427        60.87134         0.63943
C         40.28324        40.08649        -0.48486
C         40.28662        41.48742        -0.41577
C         39.03698        42.22124        -0.30723
C         40.21612        44.37851        -0.20753
C         38.98256        43.56923        -0.13218
C         40.21896        45.76516         0.30364
C         39.00663        46.43114         0.44960
C         40.26239        48.53585         1.12889
C         38.99844        47.86846         0.64220
C         40.28713        50.03357         0.91237
C         39.01732        50.74220         0.79176
C         40.28230        52.92983         0.97629
C         38.99224        52.18492         1.14473
C         40.23709        54.38254         0.74012
C         39.04046        55.07747         0.71043
C         40.17817        57.16669         0.01423
C         39.05272        56.52758         0.48867
C         40.08516        58.64998        -0.42493
C         38.95490        59.39961         0.24106
C         40.29479        61.49756         0.38915
C         39.01626        60.83171         0.37836
C         42.67961        35.79499        -0.11183
C         42.66272        37.17052        -0.41825
C         41.48538        37.92799        -0.49012
C         42.72713        40.07965        -0.49565
C         41.49584        39.35788        -0.53646
C         42.75122        41.47629        -0.31406
C         41.52296        42.18028        -0.33252
C         42.78421        44.34021         0.04498
C         41.53651        43.64712        -0.32893
C         42.75248        45.72776         0.29782
C         41.49976        46.45265         0.42822
C         42.74945        48.55445         0.69371
C         41.51858        47.82485         0.69084
C         42.74312        49.97875         0.74068
C         41.47801        50.70773         0.76728
C         42.76948        52.91533         0.88734
C         41.47693        52.19175         0.41388
C         42.77573        54.35066         0.41429
C         41.54058        55.15750         0.75169
C         42.51950        56.78489        -0.82096
C         41.41729        56.39568        -0.09474
C         42.50736        58.90082        -0.85253
C         41.38420        59.41721        -0.29056
C         42.76475        61.43553         0.08545
C         41.47489        60.79703         0.16352
C         45.10702        32.99344         0.45263
C         43.90363        33.68574         0.30380
C         45.15957        35.75410        -0.09272
C         43.89479        35.07223         0.02069
C         45.20013        37.14131        -0.36276
C         43.95307        37.84007        -0.67274
C         45.26130        40.04442        -0.38126
C         43.99228        39.37235        -0.70694
C         45.23986        41.47095        -0.13048
C         44.01802        42.18317        -0.15224
C         45.23516        44.29937         0.27935
C         44.00346        43.60678         0.05457
C         45.23287        45.72115         0.45725
C         43.99550        46.42645         0.46832
C         45.21457        48.57072         0.57815
C         43.98365        47.85102         0.58167
C         45.19945        49.99429         0.50811
C         43.96588        50.67268         0.60134
C         45.20063        52.84423         0.00976
C         43.92729        52.12502         0.33684
C         45.21213        54.31280        -0.00637
C         43.92483        54.97108        -0.03262
C         45.02647        57.05664        -0.85632
C         43.88267        56.31922        -0.60210
C         44.95096        58.55048        -1.28974
C         43.89450        59.24920        -0.39421
C         45.18316        61.40602        -0.41699
C         43.93353        60.76298        -0.28320
C         46.33487        33.64540         0.32943
C         47.61334        35.73480        -0.12489
C         46.38190        35.03358         0.06031
C         47.64337        37.09979        -0.33906
C         46.42286        37.85193        -0.38821
C         47.71528        39.97191        -0.03807
C         46.43275        39.29467        -0.33159
C         47.73524        41.45136         0.06202
C         46.47920        42.16613         0.11699
C         47.69095        44.27057         0.67640
C         46.45116        43.56043         0.33284
C         47.73345        45.74225         0.61504
C         46.47100        46.44948         0.60826
C         47.68117        48.61759         0.86678
C         46.44269        47.85397         0.65887
C         47.70512        50.04927         0.52659
C         46.43750        50.74487         0.38003
C         47.70566        52.90921         0.41963
C         46.44132        52.11282         0.19066
C         47.65175        54.34673        -0.06313
C         46.39436        55.03125        -0.12132
C         47.63235        57.10798        -0.81466
C         46.32963        56.54812        -0.24618
C         47.60816        58.54158        -1.20435
C         46.30349        59.28865        -1.23998
C         47.57999        61.40568        -0.68884
C         46.34525        60.72796        -0.81801
C         48.94668        37.77578        -0.69244
C         50.28472        39.99414        -0.51811
C         49.00034        39.22595        -0.23872
C         50.22812        41.44478        -0.09355
C         48.96509        42.10135         0.14619
C         50.23644        44.29480         0.32085
C         49.01034        43.51738         0.55291
C         50.22249        45.70402         0.33798
C         48.96333        46.39667         0.56265
C         50.18901        48.59551         0.36297
C         49.00476        47.84930         0.78445
C         50.14864        50.00479         0.25159
C         48.89759        50.71004         0.30818
C         50.16693        52.89768        -0.02767
C         48.87021        52.14271        -0.18831
C         50.12520        54.31349        -0.19719
C         48.86855        55.01590        -0.28092
C         50.12263        57.10806        -0.78363
C         48.83665        56.43694        -0.63538
C         50.15079        58.58592        -0.94839
C         48.87884        59.33108        -1.09306
C         50.03978        61.47685        -0.58265
C         48.83497        60.77722        -0.77055
C         51.40686        42.15257        -0.04657
C         52.65620        44.30149         0.11986
C         51.44990        43.58500         0.11944
C         52.69710        45.71564         0.10964
C         51.43952        46.43456         0.09976
C         52.43984        48.66678        -0.45301
C         51.35175        47.87293        -0.01833
C         52.56063        50.02665        -0.17304
C         51.36450        50.74821         0.07631
C         52.68060        52.92357         0.11647
C         51.36361        52.18227         0.03765
C         52.58188        54.32587        -0.45349
C         51.37579        55.01462        -0.41834
C         52.60349        57.18046        -0.90478
C         51.32520        56.44110        -0.68451
C         52.59752        58.67844        -0.90495
C         51.33142        59.31936        -0.32112
C         52.49753        61.52561        -0.37642
C         51.30072        60.82656        -0.52235
C         54.00510        46.32198         0.27678
C         55.35440        48.50464         0.15128
C         54.33908        47.59068        -0.19694
C         55.22864        49.91766        -0.06625
C         53.89066        50.69932         0.11879
C         55.15662        52.84016        -0.25782
C         53.87124        52.10676        -0.51301
C         55.17762        54.28008        -0.50204
C         53.85332        55.02581        -0.71275
C         55.05504        57.16381        -0.32301
C         53.88824        56.49653        -0.63448
C         55.13729        58.64687        -0.38985
C         53.85709        59.44963        -0.71062
C         54.95082        61.51673         0.02566
C         53.77115        60.86702        -0.30175
C         56.36340        50.71249         0.02785
C         57.54837        52.90440         0.19583
C         56.35015        52.16021         0.02746
C         57.54989        54.32469         0.27873
C         56.32560        55.05856        -0.00979
C         57.30373        57.15212         0.85745
C         56.23374        56.43822         0.12574
C         57.24161        58.67045         1.08570
C         56.19566        59.37726         0.26944
C         57.34278        61.48662         0.68582
C         56.17065        60.79697         0.29906
C         58.73116        55.04299         0.50137
C         59.86542        57.25382         1.06787
C         58.66948        56.42796         0.94724
C         59.81279        58.66397         1.08292
C         58.58012        59.37253         0.97144
C         59.80006        61.49987         0.97742
C         58.57352        60.78876         0.89255
C         61.02666        59.41986         1.13791
C         61.00790        60.80872         1.10222
O         39.86998        52.48455         2.30034
O         51.37211        59.08615         1.05040
O         53.46119        48.07171        -1.19069
O         49.76766        59.06995        -2.25906
O         40.88956        44.25539        -1.51648
O         48.38019        43.74408         1.86282
O         42.34441        57.81928        -1.73738
O         44.06320        58.75176         0.92935
O         48.48201        39.36288         1.10453
O         46.99426        58.94119        -2.49167
O         52.53623        57.98384        -2.15918
O         36.85098        51.71369        -0.94058
O         54.65001        54.56125        -1.87127
O         53.93609        50.80606         1.52099
O         54.84117        59.20423        -1.73171
O         31.85332        59.35065         1.79899
O         44.25860        52.36348        -1.06774
O         44.01305        38.57830        -1.93898
O         48.42875        48.26129         2.06882
O         57.69247        56.50972         2.09372
O         38.01084        57.32802         2.44133
H         37.25990        57.84208         2.80907
O         36.71392        43.84913        -0.90799
H         37.09494        44.06127        -1.78474
O         56.81431        58.85950         2.47725
H         57.21458        58.11798         2.99101
O         52.96555        53.15266         1.51154
H         53.28563        52.26547         1.87674
O         42.84445        52.87349         2.32393
H         42.36055        53.65740         2.67655
O         41.71096        55.51372         2.17317
H         41.02206        56.17786         2.39677
O         47.92957        52.96796         1.85405
H         47.29821        53.60685         2.24625
O         32.52398        56.95237         2.41514
H         31.94863        57.68818         2.73542
O         41.39284        52.31489        -1.02040
H         42.27785        52.13081        -1.41019
O         34.51234        52.91585         2.55886
H         33.66639        53.41412         2.50108
O         53.65448        51.99821        -1.93371
H         53.92361        52.85816        -2.34216
O         50.57830        39.98899        -1.92061
H         50.26475        39.13753        -2.30540
O         39.71044        58.59657        -1.83616
H         40.49891        58.25450        -2.31926
O         46.26121        57.11961         1.10594
H         45.45619        57.73682         1.15923
O         40.20730        48.33540         2.59795
H         40.96949        48.81695         2.98627
O         36.27289        47.84897         2.02170
H         37.07400        47.44531         2.42244
O         44.50239        58.63699        -2.65044
H         45.30055        58.54589        -3.22183
O         48.61709        52.07605        -1.62259
H         49.38251        51.63666        -2.04895
O         49.09970        37.72631        -2.12628
H         48.89372        36.81802        -2.43024
O         36.51514        51.33335         2.30790
H         35.59867        51.14145         2.61061
H         29.67630        56.73331        -0.63261
H         28.54432        58.83741        -1.18600
H         30.64443        62.60466        -0.89236
H         28.61966        61.30035        -1.47059
H         32.10594        52.52895        -0.33544
H         30.82895        54.63515        -0.33652
H         32.98959        62.64292        -0.02158
H         34.33403        48.23780         0.17427
H         33.30036        50.54487        -0.54252
H         35.34778        62.65795         0.45209
H         37.23585        43.88824         1.07610
H         35.62359        45.94009        -0.04431
H         37.85486        62.63812         0.67089
H         39.32608        39.54503        -0.50234
H         38.10179        41.64106        -0.30030
H         40.32398        62.57762         0.59812
H         41.72614        35.26791         0.04308
H         40.51510        37.41833        -0.39122
H         42.80862        62.52587         0.24338
H         45.08641        31.91576         0.66783
H         42.94771        33.15188         0.40358
H         45.27611        62.46391        -0.12065
H         47.27290        33.08360         0.44320
H         48.55690        35.16775        -0.09251
H         47.54841        62.47096        -0.40961
H         49.80615        37.21481        -0.22055
H         51.12787        39.47830         0.03833
H         49.99844        62.57096        -0.45313
H         52.35524        41.62613        -0.23009
H         53.60480        43.74556         0.08356
H         52.48366        62.62661        -0.32586
H         54.75347        45.73839         0.83503
H         56.20384        48.15129         0.75886
H         54.93773        62.59819         0.22849
H         57.35421        50.22849         0.01699
H         58.49225        52.36546         0.36145
H         57.33975        62.58631         0.70821
H         59.70278        54.52887         0.47897
H         60.84554        56.75842         1.00960
H         59.79202        62.59794         0.92756
H         61.98253        58.88199         1.21398
H         61.95205        61.36838         1.15920
