         720
 CSIRO Nanostructure Databank - Neutral Graphene Oxide Data Set
C         22.90003        27.40460         0.79245
C         22.90229        28.82982         0.67449
C         22.92612        31.82319         0.84243
C         22.87726        33.15396         0.62456
C         22.79319        36.07135        -0.40502
C         22.84286        37.42467        -0.45067
C         22.96211        40.23459        -1.20554
C         23.02778        41.44407        -1.88562
C         23.10300        44.09433        -3.18722
C         22.96695        45.40322        -2.80492
C         25.29301        24.52628         0.85637
C         24.12831        25.21843         0.76780
C         25.32481        27.38193         0.46173
C         24.06224        26.66856         0.72514
C         25.33531        28.86649         0.43618
C         24.06174        29.57030         0.48978
C         25.27125        31.69964         0.14740
C         24.08819        31.02895         0.43554
C         25.29741        33.14682         0.12480
C         23.96200        33.76642        -0.22760
C         25.29556        36.03987        -0.02725
C         24.02702        35.28175        -0.34198
C         25.24500        37.51185         0.04101
C         24.08586        38.16951        -0.34641
C         25.38716        40.18545        -0.99572
C         24.12864        39.56278        -0.78005
C         25.44672        41.38823        -1.72810
C         24.26961        42.00820        -2.21088
C         25.43908        44.07874        -2.32398
C         24.38382        43.30002        -3.05494
C         25.10708        45.26330        -1.71976
C         24.01315        46.08665        -2.09864
C         25.26905        48.23304        -1.74804
C         24.10821        47.51076        -1.82743
C         27.97732        23.09989         1.02064
C         27.89936        24.48419         0.80205
C         26.60554        25.21987         1.15035
C         27.87325        27.37308         0.73664
C         26.59955        26.61576         0.56224
C         27.81134        28.86824         0.58893
C         26.52165        29.54502         0.34532
C         27.77365        31.73490         0.31179
C         26.55233        30.97080        -0.14561
C         27.69584        33.09972         0.54654
C         26.46738        33.84898         0.36020
C         27.70605        36.10820         0.69466
C         26.39555        35.33549         0.73375
C         27.76407        37.49095         0.59929
C         26.50507        38.23571         0.29175
C         27.95529        40.11728        -0.71432
C         26.60912        39.62597        -0.36733
C         28.05499        41.34998        -1.52998
C         26.78106        41.98005        -2.02309
C         28.06022        44.21954        -2.01994
C         26.79069        43.46292        -2.26540
C         28.06520        45.68753        -1.86674
C         26.98124        46.40477        -1.49167
C         27.85786        48.59041        -2.18976
C         26.62428        47.70206        -2.17476
C         27.83682        49.89827        -2.54975
C         30.38841        23.08264         0.63065
C         29.18400        22.41206         0.95556
C         30.31397        24.47328         0.32579
C         29.09484        25.19074         0.46147
C         30.25802        27.39182         0.13497
C         29.11715        26.64882         0.40369
C         30.22985        28.84239         0.15870
C         29.06267        29.57151         0.28262
C         30.22937        31.71985         0.49783
C         29.03713        31.03253         0.33455
C         30.24124        33.10607         0.97359
C         28.89003        33.79890         1.05438
C         30.16494        35.76382         0.48837
C         28.88019        35.32880         1.23466
C         30.20574        37.93190         1.31428
C         28.99365        38.31838         0.65786
C         30.39050        40.16877        -0.32402
C         29.09989        39.51040        -0.17447
C         30.55109        41.37052        -1.24251
C         29.29332        42.17803        -1.41088
C         30.54594        44.34080        -1.68500
C         29.32179        43.52769        -1.66564
C         30.56958        45.71771        -1.89381
C         29.29733        46.40688        -2.23605
C         30.39028        48.71388        -1.83228
C         29.19487        47.88673        -2.26722
C         30.27700        49.99478        -2.65872
C         29.07212        50.57047        -2.90089
C         33.01333        20.42570         1.22302
C         31.81620        21.00136         0.89632
C         32.87438        23.14508         0.39152
C         31.66365        22.40620         0.63691
C         32.83917        24.49660         0.04488
C         31.53815        25.17109        -0.12091
C         32.80228        27.44035        -0.19377
C         31.51177        26.69960        -0.25165
C         32.78283        28.91351        -0.29622
C         31.47930        29.60715        -0.09141
C         32.77986        31.71285         0.73078
C         31.50034        30.98014         0.49973
C         32.77627        33.18259         0.91621
C         31.52612        33.87139         1.00097
C         32.66700        36.07271         1.06839
C         31.49093        35.27409         0.99853
C         32.67478        37.49076         0.93841
C         31.50963        38.31305         0.81164
C         32.83643        40.36742         0.28598
C         31.55242        39.58809         0.15202
C         32.90582        41.67027        -0.46215
C         31.76519        42.23431        -0.94987
C         33.10589        44.38786        -1.40294
C         31.81904        43.59961        -1.51956
C         33.08227        45.88474        -1.58754
C         31.76815        46.54720        -1.78148
C         32.88354        48.71292        -1.31655
C         31.73080        47.94625        -1.77595
C         32.65503        50.12766        -1.07597
C         32.09268        51.10784        -1.89029
C         33.04635        53.18953        -0.90868
C         32.08006        52.50041        -1.64855
C         35.66843        19.22971         1.89460
C         35.54858        20.50719         1.33161
C         34.24309        21.26910         1.50595
C         35.21655        22.70222        -0.27264
C         34.14358        22.43260         0.55678
C         35.25297        24.78766        -0.75366
C         34.11070        25.31885         0.08700
C         35.27983        27.50203        -0.14235
C         34.00148        26.79622        -0.13925
C         35.32425        28.86695         0.04773
C         34.08211        29.66073        -0.09762
C         35.30735        31.78187         0.75380
C         34.07358        31.10284         0.30233
C         35.26252        33.14839         1.01462
C         33.98621        33.86213         1.00377
C         35.26386        36.03805         1.33994
C         33.94539        35.32062         1.27829
C         35.28435        37.55488         1.17676
C         33.99425        38.10038         0.56230
C         35.36260        40.25760         0.19502
C         34.06987        39.52190         0.11072
C         35.34276        41.68893         0.04849
C         34.16584        42.39258        -0.36627
C         35.37781        44.53593        -0.29629
C         34.23483        43.76399        -0.68389
C         35.39398        45.98407        -0.41268
C         34.27838        46.69651        -1.08615
C         35.32129        48.90285        -0.49249
C         34.11704        48.15900        -0.87373
C         35.38940        50.35631        -0.46029
C         34.27634        51.16126        -0.24784
C         35.45014        53.31093        -0.19985
C         34.21532        52.57743        -0.42465
C         35.44909        54.68337         0.10971
C         37.95092        18.96863         1.05332
C         36.82016        18.46262         1.73409
C         37.90165        20.31289         0.56563
C         36.67767        21.06542         0.65663
C         37.65704        22.93779        -0.89528
C         36.55284        22.29445        -0.05129
C         37.76510        24.53614        -0.90297
C         36.50292        25.30286        -0.61997
C         37.83271        27.52457        -0.42371
C         36.53068        26.77826        -0.46609
C         37.76826        28.91222         0.09371
C         36.57246        29.56321         0.29427
C         37.79860        31.61692         1.18721
C         36.47700        30.87544         1.08013
C         37.71564        33.08240         1.65805
C         36.50707        33.88618         1.20524
C         37.77069        36.03023         1.12358
C         36.53019        35.26898         1.19364
C         37.77794        37.38007         0.86676
C         36.50654        38.04763         0.38644
C         37.79946        40.27927         0.46949
C         36.55083        39.56631         0.38399
C         37.78572        41.70767         0.43957
C         36.54080        42.42204         0.23425
C         37.67647        44.54759         0.81273
C         36.50302        43.83952         0.18865
C         37.67698        46.07527         0.63214
C         36.50079        46.74867        -0.01236
C         37.87441        48.87930        -0.26705
C         36.52143        48.16399        -0.19578
C         37.78667        50.36041         0.02454
C         36.69469        51.12821        -0.70337
C         37.85561        53.28276         0.06076
C         36.66506        52.59095        -0.23849
C         37.85523        54.65154         0.41925
C         36.63304        55.33997         0.42592
C         40.34050        16.03736         1.05747
C         39.22066        16.78943         1.22030
C         40.26792        18.81030         0.27995
C         39.13517        18.17815         0.81280
C         40.26966        20.20546        -0.01899
C         39.04650        20.91055        -0.01663
C         40.32440        23.03184        -0.55657
C         39.01320        22.27140        -0.60488
C         40.45129        24.54579        -0.71959
C         39.09159        25.30009        -0.77897
C         40.26921        27.41450         0.04384
C         39.11750        26.76075        -0.35672
C         40.30215        28.84935         0.28820
C         39.06125        29.66192        -0.04658
C         40.29288        31.80276         0.43943
C         39.05744        30.98241         0.69429
C         40.32512        33.11338         1.19731
C         39.05062        33.82463         1.51137
C         40.30246        36.02038         1.38421
C         39.04832        35.24011         0.94914
C         40.33931        37.40284         0.75009
C         39.04060        38.11257         0.57585
C         40.27153        40.29572         0.51956
C         39.04122        39.59390         0.53971
C         40.24772        41.72522         0.45294
C         39.01019        42.40696         0.44138
C         40.26172        44.62820         0.43220
C         38.97059        43.88706         0.34687
C         40.28021        46.06966         0.74030
C         38.99426        46.79255         0.68501
C         40.23266        48.89234         0.76085
C         39.07337        48.23639         0.41120
C         40.22819        50.36192         0.92686
C         38.98873        51.08539         0.50492
C         40.42879        53.21937         0.27731
C         39.12743        52.51670         0.11871
C         40.38663        54.74423         0.20234
C         39.14168        55.29376         0.93747
C         40.33023        57.48122         0.83578
C         39.16461        56.80855         0.87154
C         42.84099        15.94055         0.52259
C         41.51610        16.55132         0.34414
C         42.76976        18.75710        -0.09224
C         41.48749        18.04247        -0.02329
C         42.76466        20.17465        -0.08971
C         41.52854        20.90002        -0.16638
C         42.74793        23.01651         0.12011
C         41.54823        22.30579        -0.15255
C         42.62685        24.35663         0.79493
C         41.34933        25.20594         0.37305
C         42.77792        27.33031         0.70440
C         41.60614        26.68753        -0.01649
C         42.70656        28.79753         1.09684
C         41.47106        29.52464         0.60850
C         42.73965        31.65709         0.66112
C         41.53752        30.97016         0.63630
C         42.77422        33.12196         0.64488
C         41.56032        33.89181         0.90845
C         42.81359        36.01762         1.01740
C         41.56207        35.24971         1.06433
C         42.79859        37.48993         0.84979
C         41.60435        38.17949         0.81165
C         42.75146        40.33599         0.53101
C         41.55677        39.61809         0.60821
C         42.73026        41.76357         0.38583
C         41.49207        42.45648         0.41681
C         42.73463        44.56823         0.55705
C         41.52286        43.87035         0.49465
C         42.72799        45.96491         1.12553
C         41.46792        46.74324         0.84320
C         42.72209        48.83836         1.16286
C         41.50073        48.18860         0.97920
C         42.77050        50.29921         1.60387
C         41.49838        51.09502         1.23897
C         42.80356        53.19696         0.99433
C         41.60486        52.53184         0.86854
C         42.84516        54.66795         0.91292
C         41.65034        55.39160         0.72609
C         42.80691        57.48904         1.14972
C         41.61815        56.79171         0.88270
C         43.97472        16.61550         0.20247
C         45.21499        18.75274        -0.20472
C         43.98407        18.03529        -0.09958
C         45.22749        20.16877        -0.08254
C         43.99516        20.89165        -0.02740
C         45.22432        23.02599         0.25590
C         43.98275        22.30768         0.14124
C         45.22972        24.42510         0.46500
C         43.99173        25.14054         0.99998
C         45.26255        27.38339         0.53025
C         43.95057        26.64203         0.73685
C         45.27363        28.81663         1.13958
C         43.98944        29.55750         0.84394
C         45.27331        31.64088         0.50925
C         43.99201        30.91442         0.70069
C         45.25812        33.10657         0.25924
C         43.94754        33.79481         0.39325
C         45.14298        36.01581        -0.02657
C         44.03383        35.24756         0.59493
C         45.19307        37.45864         0.29140
C         44.06985        38.16412         0.64842
C         45.24553        40.35184         0.18182
C         44.08614        39.66645         0.84919
C         45.10030        41.74327        -0.35693
C         43.92558        42.50842         0.16543
C         45.14239        44.78826        -0.12820
C         43.94367        43.90124         0.23627
C         45.26710        45.87258         0.96791
C         44.01321        46.73942         0.96576
C         45.23742        48.81445         1.65001
C         43.98663        48.09791         1.14979
C         45.30457        50.31007         1.29395
C         44.04478        51.04782         1.27032
C         45.29984        53.17069         1.31078
C         44.02221        52.42610         1.19227
C         45.32040        54.66155         1.33269
C         44.03955        55.39292         1.16073
C         44.00854        56.79207         1.25474
C         47.65269        18.69000        -0.36516
C         46.46093        18.05483        -0.43656
C         47.72855        20.10055         0.05403
C         46.46786        20.88948         0.03446
C         47.71667        23.04450         0.22397
C         46.45899        22.27821         0.19254
C         47.64540        24.50917         0.08146
C         46.46493        25.15358         0.40678
C         47.80507        27.31943         0.59749
C         46.51978        26.57686         0.93258
C         47.78365        28.78712         0.73969
C         46.50536        29.53583         0.60589
C         47.66527        31.53957        -0.36112
C         46.47066        30.82765         0.18331
C         47.64579        33.03577        -0.65757
C         46.27838        33.75261        -0.67756
C         47.66947        36.00969        -0.46200
C         46.36208        35.29192        -0.54332
C         47.65719        37.38926        -0.37507
C         46.37719        38.12172        -0.30389
C         47.63491        40.38455        -0.73014
C         46.36435        39.60895        -0.38443
C         47.64319        41.73961        -0.05781
C         46.41304        42.52244        -0.34613
C         47.81839        44.73958        -0.29758
C         46.45335        44.01231        -0.35422
C         47.74994        46.02701         0.53874
C         46.56531        46.64533         0.89024
C         47.82819        48.82311         1.14538
C         46.55498        48.04429         1.38290
C         47.76343        50.27755         0.87108
C         46.48823        50.98123         1.10959
C         47.83109        53.15791         1.40770
C         46.54992        52.46959         0.82601
C         47.77364        54.62840         1.03586
C         46.61701        55.30844         1.00074
C         50.33414        20.18010        -0.38209
C         49.06747        20.83008         0.03131
C         50.12236        23.06185        -0.68980
C         49.03414        22.33256         0.03588
C         50.15816        24.56173        -0.56428
C         48.89500        25.26500        -0.17223
C         50.25543        27.36876         0.08336
C         48.96683        26.68300         0.24221
C         50.29205        28.74086         0.19927
C         49.06222        29.51422         0.47454
C         50.23715        31.63738        -0.40153
C         48.98673        30.84448        -0.20500
C         50.12742        33.11137        -0.50199
C         48.92591        33.80998        -0.53416
C         50.12404        36.01825        -0.43149
C         48.91573        35.26624        -0.45311
C         50.15350        37.43748        -0.43130
C         48.90631        38.18756        -0.08091
C         50.11358        40.35212        -0.56580
C         48.92794        39.64223        -0.51088
C         50.09002        41.86051        -0.30730
C         48.80002        42.32495         0.36414
C         50.22040        44.46929         0.62201
C         49.03439        43.76965        -0.01808
C         50.24182        45.96901         0.71914
C         49.00041        46.74982         0.59437
C         50.28458        48.86344         0.70257
C         49.04986        48.12609         0.71414
C         50.33066        50.23754         0.84261
C         49.07544        51.01719         0.74976
C         50.35003        53.08078         1.03919
C         49.11611        52.47070         0.97438
C         51.41509        20.86790        -0.79438
C         52.61967        23.12030        -1.15150
C         51.36206        22.32539        -1.07350
C         52.64162        24.47488        -0.66572
C         51.48271        25.22018        -0.38154
C         52.73666        27.34433        -0.16118
C         51.51317        26.63429        -0.12372
C         52.80882        28.78727        -0.07535
C         51.55020        29.49922         0.22208
C         52.76421        31.66392        -0.35082
C         51.53242        31.02130         0.05483
C         52.66855        33.07123        -0.73507
C         51.41537        33.81281        -0.36109
C         52.65672        36.06861        -0.62375
C         51.41722        35.31235        -0.35580
C         52.60994        37.45101        -0.59469
C         51.36467        38.17693        -0.50090
C         52.63853        40.30575        -0.58349
C         51.37665        39.61377        -0.50900
C         52.60067        41.81307        -0.61709
C         51.45505        42.30896         0.27219
C         52.70736        44.51354         0.33486
C         51.51701        43.81165         0.39409
C         52.70773        45.95791         0.51288
C         51.52627        46.65089         0.61256
C         52.68913        48.73326         1.32669
C         51.58389        48.14510         0.45087
C         52.81539        50.21096         0.98138
C         51.60096        50.95339         0.89409
C         51.56524        52.35997         0.92039
C         55.01914        23.21936        -1.65249
C         53.78443        22.53161        -1.62320
C         55.15982        24.46998        -1.06846
C         53.96612        25.08813        -0.47255
C         55.25448        27.32414        -0.54463
C         54.00685        26.61022        -0.21214
C         55.26630        28.76833        -0.33760
C         53.99843        29.49181        -0.18272
C         55.24752        31.68704        -0.68703
C         54.07595        31.00235         0.02121
C         55.25698        33.20549        -0.58075
C         53.92230        33.86453        -0.89743
C         55.08340        36.01104        -1.06293
C         53.90582        35.34844        -0.78183
C         55.02999        37.48663        -1.15966
C         53.91588        38.17706        -0.41892
C         55.12969        40.36343        -0.72881
C         53.85918        39.65597        -0.68004
C         55.16484        41.77084        -0.49646
C         53.93261        42.48337        -0.29083
C         55.20187        44.62322        -0.35056
C         53.95034        43.83436         0.00898
C         55.23451        46.05604         0.18231
C         53.96979        46.69487         0.63369
C         55.21114        48.69485         1.59329
C         53.97654        47.96592         1.12501
C         55.26204        50.05904         0.94845
C         54.10521        50.77107         0.76126
C         57.60439        24.55697        -1.43018
C         56.40964        25.20643        -1.11242
C         57.58774        27.39287        -1.36062
C         56.41194        26.64876        -0.92989
C         57.55928        28.78358        -1.52104
C         56.50192        29.56075        -0.89943
C         57.42070        31.68309        -1.92841
C         56.31205        31.00533        -1.18983
C         57.46430        33.18744        -1.95337
C         56.34056        33.93030        -1.35041
C         57.45869        36.05929        -2.04974
C         56.28516        35.28935        -1.45610
C         57.54085        37.42364        -1.37430
C         56.29810        38.25235        -1.36039
C         57.61226        40.29449        -0.75548
C         56.34472        39.65967        -0.92075
C         57.64060        41.68353        -0.40204
C         56.42571        42.42928        -0.31932
C         57.69464        44.45929         0.22370
C         56.47914        43.84087        -0.08136
C         57.85675        45.97182         0.35929
C         56.53650        46.72500         0.53794
C         57.58213        48.23096         2.19817
C         56.49307        47.90124         1.44490
C         58.78684        25.27393        -1.68395
C         59.96096        27.40647        -2.11242
C         58.77568        26.66285        -1.72836
C         59.90474        28.72531        -2.38747
C         58.58899        29.46362        -2.40599
C         59.84765        31.67923        -2.32973
C         58.69071        30.95576        -2.14499
C         59.90747        33.09625        -2.25385
C         58.76617        33.88912        -2.07977
C         59.98396        36.06548        -1.98072
C         58.77764        35.30378        -1.95909
C         60.03785        37.41153        -1.71621
C         58.85923        38.12750        -1.20822
C         60.05626        40.27179        -0.76076
C         58.84308        39.58867        -0.93922
C         60.08596        41.59977        -0.35708
C         58.88935        42.32867        -0.15556
C         60.09333        44.28719         0.81236
C         58.90064        43.69982         0.27226
C         60.07764        45.51492         1.42452
C         58.90202        46.33030         1.39802
C         58.78511        47.45338         2.17838
O         45.69237        32.62444         1.56584
O         27.59287        41.19536        -2.94000
O         25.98534        45.77011        -0.75028
O         39.75509        37.50642        -0.60142
O         56.33531        29.25640         0.52165
O         32.74500        43.70819        -2.65760
O         49.69148        30.81542        -1.48994
O         49.72736        43.08682        -1.25277
O         37.12686        27.37528        -1.70446
O         40.50960        50.82730         2.30611
O         34.19988        30.72651        -1.11440
O         33.08438        50.55641         0.19956
O         31.42572        50.68315        -3.06042
O         32.01146        29.43947        -1.43743
O         47.59399        32.04370        -1.72810
O         54.17454        25.63236         0.86739
O         51.55253        34.52790         0.91614
O         51.58841        30.41089         1.40318
O         39.93819        33.39305         2.59585
O         48.54360        20.27650         1.27289
O         38.70508        30.87231         2.09085
O         26.01052        26.77862        -0.74564
O         58.18808        37.38350        -0.08863
O         47.47324        48.36702         2.49405
O         27.62491        43.85411        -3.41014
O         34.57703        35.66720         2.59071
O         39.84436        22.39881        -1.80706
O         50.31724        22.63651        -2.07467
O         43.83097        35.60643         2.00729
O         30.08243        36.08847        -0.68612
O         57.00583        32.43263        -3.13648
O         34.01428        38.44794        -0.86417
O         53.21662        33.39530        -2.08904
O         45.37937        35.86401        -1.46570
O         45.38308        53.87731         2.59915
O         50.08048        45.07566         1.93332
O         38.09471        46.68017         1.90593
O         46.46341        43.28275        -1.62237
O         35.01479        23.56396        -1.35948
O         40.04196        52.62537        -1.03695
O         45.97162        38.76650        -1.58874
O         48.70205        22.82652         1.35517
O         48.58496        29.38722         1.84467
O         29.46681        33.18120         2.25372
O         49.32093        25.17458        -1.60300
O         55.90805        46.97192        -0.77374
O         26.39578        39.44940         1.08912
O         31.39075        25.85118        -1.43138
O         41.27350        17.00055        -1.02923
O         34.12522        46.32122        -2.51199
O         38.46693        25.03205        -2.08294
O         42.31831        23.70330         2.02707
O         27.89804        28.20988         1.92826
O         55.36552        38.01712        -2.47016
O         48.29518        50.59795        -0.47274
O         32.14629        30.98454         1.84153
O         29.33286        47.14228        -3.52627
O         25.02764        35.58535        -1.39329
O         37.87744        50.76562         1.41318
O         39.54348        44.42063        -0.88135
O         30.26225        37.42575         2.55165
H         29.37872        37.12560         2.87889
O         54.26394        38.03596         0.99936
H         53.53770        38.42685         1.53003
O         44.24431        25.11853         2.44586
H         43.58390        24.44244         2.79761
O         34.61576        25.17742         1.46634
H         34.00487        25.64978         2.07111
O         45.34305        28.74097         2.58231
H         46.01463        28.04558         2.81863
O         45.36386        27.53801        -0.91269
H         44.45685        27.57504        -1.29086
O         55.00092        48.93098         3.03678
H         55.39608        49.79830         3.26659
O         40.24901        36.23129         2.81206
H         40.31481        35.34484         3.23819
O         37.45888        32.95644         3.09132
H         38.31114        32.64840         3.48421
O         35.39884        38.13485         2.49141
H         34.96042        37.51595         3.12088
O         44.27000        39.87434         2.30128
H         43.59279        39.33646         2.76551
O         58.43397        46.41793        -0.90193
H         57.67921        46.64955        -1.49080
O         40.28243        55.14776        -1.17817
H         40.11040        54.33111        -1.70692
O         34.19114        21.71681         2.89585
H         33.34761        22.20084         3.01547
O         45.32513        45.14048         2.21872
H         45.18567        45.77070         2.95702
O         30.81187        40.79003        -2.55774
H         30.89653        41.52170        -3.20592
O         44.77351        41.46883        -1.76024
H         45.62593        41.25251        -2.21564
O         57.21682        36.28132        -3.46090
H         56.97749        35.42419        -3.87229
O         39.11523        29.96118        -1.48212
H         38.91408        29.13582        -1.97641
O         36.95424        51.16275        -2.12207
H         37.32552        50.28638        -2.38475
O         42.56220        28.76984         2.55689
H         43.47376        28.67008         2.93137
O         40.28502        32.27361        -0.93357
H         40.06229        31.51134        -1.52032
O         44.82662        45.46773        -1.35522
H         45.00529        44.83795        -2.08866
O         48.90759        38.28701         1.41280
H         49.13838        37.39964         1.76525
O         46.55550        52.64746        -0.61143
H         47.21651        52.00763        -0.97896
O         45.05029        48.76504         3.08984
H         45.92288        48.97242         3.49802
O         24.80523        42.93276        -4.38582
H         25.78064        42.82053        -4.38878
O         36.37294        37.58404        -0.97944
H         37.14211        37.90782        -1.49338
O         45.67712        33.49187        -1.96240
H         46.26021        33.84488        -2.66569
O         55.12269        44.72269        -1.80909
H         55.51335        45.59263        -2.05696
O         25.97222        35.36074         2.13510
H         26.78032        35.23978         2.68709
O         38.22555        48.80291        -1.70281
H         38.17877        47.86377        -1.98529
O         37.31490        22.58838        -2.24802
H         38.01073        22.97546        -2.82511
O         51.96833        48.42220        -0.92585
H         51.26071        48.09086        -1.51745
O         39.27491        54.88780         2.32511
H         38.51047        55.23886         2.82704
O         39.11712        34.97116        -0.47587
H         39.23539        35.83745        -0.94149
O         51.63847        41.74208         1.58748
H         51.04372        42.20564         2.21412
O         30.07999        49.06638        -0.44828
H         30.80045        49.63257        -0.09399
O         26.68266        30.87707        -1.60958
H         25.86925        30.45000        -1.95402
O         46.56652        26.43216         2.38096
H         45.79326        25.86071         2.64859
O         52.28706        48.62673         2.71027
H         53.10456        48.74660         3.25128
O         52.28737        42.23307        -1.96779
H         53.06739        42.06220        -2.53550
O         32.87594        40.75226         1.70395
H         32.10586        41.32974         1.88871
O         48.06476        45.26296        -1.62024
H         47.96420        44.50213        -2.23923
O         42.65966        45.73717         2.58903
H         42.64262        46.61915         3.02143
O         26.44240        47.30750        -3.57767
H         27.33618        47.09044        -3.94073
O         47.53992        40.68696        -2.15758
H         47.24058        39.85216        -2.59172
O         37.57240        44.25213         2.22976
H         37.80422        45.08237         2.71360
O         36.13348        30.44054         2.43710
H         36.44656        31.15423         3.04500
O         47.84467        53.01475         2.84634
H         47.00545        53.42195         3.18281
O         26.65317        25.41654         2.59815
H         26.71541        24.53579         3.02318
O         28.81095        35.50263         2.67929
H         29.27076        34.71461         3.07514
O         42.08649        26.88599        -1.38034
H         41.55225        26.32536        -1.99753
O         23.67406        33.30873        -1.58895
H         24.28493        33.80515        -2.17954
O         55.54345        33.49671         0.81642
H         55.11324        32.79619         1.37097
O         40.50550        25.27047         1.53573
H         40.94014        24.66366         2.20421
O         54.23783        31.23013         1.46782
H         53.40300        30.90606         1.89257
O         41.06696        24.67332        -2.02203
H         40.46945        24.20416        -2.64991
O         42.81365        50.22223         3.05598
H         41.87731        50.24178         3.36888
O         58.09007        29.36998        -3.78726
H         58.07567        28.42026        -4.03113
H         21.93835        26.89510         0.95156
H         21.93396        29.34592         0.73802
H         22.11309        31.32245         1.38822
H         22.01599        33.75445         0.95182
H         21.82633        35.54812        -0.40797
H         21.89962        37.98031        -0.53784
H         21.97247        39.79920        -1.01719
H         22.10120        41.93592        -2.21282
H         22.28807        43.62229        -3.75582
H         22.04692        45.94989        -3.06187
H         25.26056        23.42601         0.84741
H         23.17899        24.66583         0.68533
H         25.19013        49.30970        -1.52902
H         23.15778        48.06124        -1.71799
H         27.06772        22.54245         1.28853
H         26.88886        50.44819        -2.63483
H         29.19560        21.33522         1.17003
H         29.02647        51.54215        -3.40927
H         33.07599        19.33092         1.31684
H         30.93136        20.35189         0.81562
H         33.00575        54.28827        -0.93788
H         31.38338        53.09572        -2.25598
H         34.82526        18.80801         2.45941
H         34.49985        55.23495         0.14629
H         36.83965        17.45175         2.16233
H         36.58761        56.40233         0.69985
H         40.39503        15.02944         1.49573
H         38.36420        16.34299         1.74412
H         40.33618        58.58205         0.83588
H         38.22177        57.37343         0.91045
H         42.89888        14.91405         0.91437
H         42.78805        58.58098         1.27377
H         44.94082        16.10548         0.32210
H         44.93632        57.34496         1.45644
H         48.58690        18.13590        -0.52907
H         46.43277        16.98970        -0.70421
H         48.70966        55.15445         0.79546
H         46.61486        56.37088         0.71529
H         50.42045        19.09906        -0.20048
H         50.41713        54.16228         1.22548
H         52.35733        20.33261        -0.98160
H         52.50714        52.92394         0.97137
H         55.87764        22.72714        -2.12893
H         53.74722        21.51219        -2.03116
H         56.23782        50.50359         0.70497
H         54.17596        51.80027         0.37589
H         57.63191        23.46082        -1.49487
H         57.52921        49.09381         2.87814
H         59.71265        24.72930        -1.91762
H         60.91073        26.85747        -2.19970
H         60.80837        29.24050        -2.74163
H         60.79192        31.15784        -2.53963
H         60.89032        33.57129        -2.37835
H         60.92491        35.55164        -2.22938
H         60.99007        37.94679        -1.83491
H         61.00687        39.74004        -0.90236
H         61.06081        42.08254        -0.21110
H         61.01163        43.68705         0.86106
H         60.95781        45.86717         1.98244
H         59.61000        47.73933         2.84697
