         234
 CSIRO Nanostructure Databank - Neutral Graphene Oxide Data Set
C          1.38738         2.01379         1.16386
C          1.35165         3.32725         0.58370
C          2.57226         1.39888         1.46128
C          2.49997         3.99626         0.25045
C          1.37697         5.72911        -1.07871
C          1.36780         6.95678        -1.71927
C          2.50704         5.32334        -0.34941
C          2.44208         7.84276        -1.53987
C          1.09964        10.93217        -1.38693
C          1.09525        12.20056        -0.83809
C          2.31656        10.22499        -1.49409
C          2.31769        12.84098        -0.52103
C          1.15988        14.92683         0.30441
C          1.15885        16.23974         0.66542
C          2.34335        14.24583        -0.17623
C          2.29502        17.11069         0.35285
C          2.46051        18.43017         0.98560
C          3.82450         2.04619         1.17861
C          3.83738         3.31415         0.35242
C          5.02690         1.53660         1.58544
C          4.92140         4.24861         0.88351
C          3.65424         6.17972        -0.25182
C          3.58748         7.51206        -0.78633
C          4.89077         5.64418         0.28142
C          4.67273         8.49309        -0.45006
C          3.52900        10.74032        -1.04013
C          3.54435        12.12048        -0.66651
C          4.78928         9.88472        -1.14015
C          4.78933        12.82851        -0.58240
C          3.56508        14.93055        -0.21093
C          3.58729        16.39380        -0.10068
C          4.80016        14.23202        -0.39377
C          4.86472        17.07996         0.11029
C          3.65357        19.07372         0.96953
C          4.88277        18.44186         0.51477
C          6.29203         2.17317         1.25962
C          6.26433         3.53044         0.78869
C          7.45038         1.44027         1.61204
C          7.41043         4.34342         0.60067
C          6.04814         6.41324         0.32242
C          5.94269         7.87944         0.11493
C          7.33605         5.77860         0.53835
C          7.22492         8.65476         0.09772
C          6.02385        10.68047        -0.72046
C          6.02548        12.10752        -0.73186
C          7.24483        10.01935        -0.48930
C          7.24884        12.82954        -0.75436
C          6.03918        14.95788        -0.38251
C          6.07247        16.36914        -0.11248
C          7.25915        14.26446        -0.60087
C          7.31442        17.06656        -0.05447
C          6.11014        19.11326         0.60901
C          7.33271        18.45820         0.30502
C          8.74670         1.75797         1.13983
C          8.70700         3.78037         0.46607
C         10.01132         1.51121         1.64411
C          9.90814         4.45055         0.78434
C          8.56253         6.49086         0.57404
C          8.50977         7.95626         0.39180
C          9.81690         5.87442         0.81123
C          9.78529         8.61741         0.05774
C          8.47409        10.70168        -0.61760
C          8.48739        12.10981        -0.84074
C          9.74687         9.94166        -0.58658
C          9.70382        12.82954        -0.96235
C          8.47698        14.99736        -0.64349
C          8.53298        16.38784        -0.35956
C          9.69899        14.28951        -1.04207
C          9.78768        17.09543        -0.27068
C          8.56981        19.12910         0.41394
C          9.79760        18.46398         0.16972
C         11.16094         2.28233         1.19040
C         11.14492         3.71067         0.95045
C         12.37490         1.59253         1.08814
C         12.39774         4.41511         0.96694
C         11.05494         6.67861         1.03484
C         10.95536         8.10135         0.56270
C         12.40626         5.91151         1.12990
C         12.07582         9.01012         0.63745
C         11.06421        10.68355        -0.77373
C         10.96922        12.16676        -0.72359
C         12.26781        10.13444        -0.10020
C         12.31673        12.92137        -0.76941
C         11.03177        15.05752        -1.01662
C         11.03710        16.44449        -0.49651
C         12.29442        14.33122        -1.03024
C         12.25157        17.06600        -0.17910
C         11.03499        19.12092         0.37200
C         12.26467        18.43894         0.23038
C         13.57357         2.25663         0.74601
C         13.59333         3.69312         0.83009
C         14.72751         1.52612         0.36994
C         14.98294         4.28067         0.98404
C         13.72991         6.56734         0.84218
C         13.95074         7.92910         0.90105
C         14.98973         5.79181         0.82195
C         14.97653         8.63695         0.14808
C         13.61294        10.89123        -0.02837
C         13.51370        12.02066        -1.09002
C         14.84485         9.99036        -0.31109
C         14.78902        12.82121        -1.27708
C         13.53351        15.16331        -1.17835
C         13.54761        16.26693        -0.11869
C         14.80192        14.31474        -1.18726
C         14.82520        17.08382        -0.24434
C         13.50695        19.09082         0.44991
C         14.76409        18.48127         0.17113
C         15.90397         2.19053        -0.08463
C         15.98618         3.58256         0.08368
C         17.04003         1.44896        -0.58014
C         17.11538         4.30722        -0.47423
C         16.24822         6.51143         0.37617
C         16.09076         7.84998        -0.22701
C         17.49152         5.67254         0.08388
C         17.05877         8.34606        -1.11936
C         15.93481        10.54919        -1.02906
C         16.07837        12.01717        -1.29177
C         16.96040         9.69685        -1.49085
C         17.40876        12.76511        -1.15870
C         16.05852        14.96866        -0.68183
C         16.01973        16.45271        -0.51307
C         17.34340        14.20141        -0.67327
C         17.31179        17.17561        -0.48422
C         15.94722        19.17749         0.39730
C         17.25255        18.61978         0.05250
C         18.23601         2.05464        -0.91842
C         18.31482         3.51907        -1.02950
C         19.46591         1.31550        -1.08889
C         19.64058         4.18180        -1.05345
C         18.47694         6.32543        -0.85537
C         18.21522         7.52427        -1.44314
C         19.73318         5.59669        -1.03926
C         20.13899         8.53937        -1.35699
C         18.89010        10.79707        -1.35000
C         18.68734        12.05236        -0.84318
C         19.90728         9.88209        -0.81433
C         19.77456        12.70519        -0.10855
C         18.69030        14.91487        -0.69746
C         18.61699        16.41495        -0.33903
C         19.75164        14.11645         0.07024
C         19.71649        17.03955         0.50009
C         18.40242        19.13473         0.81070
C         19.50373        18.38394         1.10423
C         20.67362         1.94408        -1.18955
C         20.80206         3.38617        -1.13395
C         22.06160         4.03190        -1.16623
C         21.00611         6.23717        -1.05556
C         21.10750         7.69708        -0.85384
C         22.15650         5.41650        -1.10892
C         22.18124         8.32245        -0.09835
C         20.95954        10.47003         0.12010
C         20.91624        11.95028         0.29483
C         22.17152         9.63659         0.26763
C         21.99718        12.62010         0.88823
C         20.81649        14.75296         0.74850
C         20.76198        16.17489         1.10248
C         21.93455        13.98189         1.14055
C         21.61259        16.71861         2.03233
C         20.51034        18.88995         2.01018
C         21.52396        18.09035         2.44385
O         19.73688        17.09461        -0.97760
O         14.80229        13.64957        -2.49499
O         13.04091         8.71652         1.59803
O          7.81160         8.69938         1.46538
O         10.28064        14.85934        -2.28145
O         11.62897        12.63076         0.50704
O         19.77011         9.82189         0.67325
O         16.86738        12.43246        -2.45054
O         15.91332         6.44661         1.79300
O         19.20849         8.05909        -2.30484
O         17.42386        18.31135        -1.38003
O         17.98661        10.24355        -2.27913
O          4.93246         8.53113         0.97694
O         16.58215        14.32326         0.56068
O          2.69970        17.07619        -1.05050
O         17.31890         4.14301        -1.91042
O         10.48312         9.98960        -1.89122
O         11.70521         6.40896         2.31623
O          2.27665         9.04048        -2.22675
O          8.77061         2.50157        -0.07010
O         19.09918        14.85411        -2.08427
H         19.73918        15.58971        -2.22662
O         13.48904        15.86773        -2.43983
H         13.68124        15.21365        -3.14831
O         18.18571         5.42371         1.32533
H         17.52043         5.53198         2.04806
O         15.40120         3.98924         2.35481
H         14.87010         4.55554         2.95416
O          5.00865         9.56203        -2.54308
H          5.01594        10.39711        -3.05580
O          4.22278         2.96126        -1.00767
H          3.54641         2.34648        -1.36051
O          4.64518         4.43819         2.30395
H          5.24217         5.14102         2.63722
O         13.57612        15.60944         1.17226
H         13.61215        16.29569         1.87038
O         13.81719        11.48539         1.25831
H         13.66018        10.79186         1.93597
O         13.25329        11.36246        -2.34757
H         13.57171        11.94856        -3.06916
H          0.43470         1.52373         1.40902
H          0.37054         3.80933         0.46309
H          2.58405         0.41919         1.96170
H          0.51841         5.05290        -1.18500
H          0.51139         7.27325        -2.32791
H          0.17179        10.46615        -1.74267
H          0.14708        12.74666        -0.74619
H          0.26524        14.32368         0.51550
H          0.29706        16.66725         1.19938
H          1.58448        18.89480         1.46281
H          5.05909         0.58031         2.13081
H          3.73623        20.07990         1.40741
H          7.33125         0.59348         2.30483
H          6.13140        20.16455         0.93255
H         10.17832         0.72816         2.39843
H          8.58445        20.18309         0.72903
H         12.38344         0.49887         1.20699
H         11.03757        20.17805         0.67597
H         14.67285         0.42836         0.32531
H         13.50103        20.14140         0.77561
H         16.98872         0.34998        -0.53985
H         15.91173        20.15946         0.89252
H         19.41528         0.21650        -1.09774
H         18.28453        20.11626         1.29667
H         21.59228         1.34781        -1.29287
H         22.97592         3.42373        -1.22442
H         23.15095         5.88576        -1.11912
H         23.06840         7.71395         0.13254
H         23.06629        10.07050         0.73620
H         22.89291        12.05944         1.18783
H         22.79199        14.46286         1.62793
H         22.38729        16.10248         2.50766
H         20.41810        19.92652         2.36487
H         22.26991        18.47419         3.15307
