         236
 CSIRO Nanostructure Databank - Neutral Graphene Oxide Data Set
C        -10.98896         0.81192         0.60152
C         -9.97260         1.45022        -0.13506
C         -8.81280         0.73544        -0.47128
C         -7.77430         1.42025        -1.33997
C         -6.43708         0.74031        -1.33432
C         -5.27355         1.44863        -1.60947
C         -4.09086         0.65655        -1.95313
C         -2.29118         1.75180        -1.39446
C         -1.25301         0.76492        -1.01422
C          0.01095         1.49810        -0.62075
C          1.14197         0.61185        -0.19158
C          2.29268         1.18183         0.36237
C          3.52535         0.45077         0.42500
C          4.75591         1.18659         0.60976
C          6.06829         0.49227         0.33625
C          7.24392         1.10283         1.10409
C          8.59558         0.36676         1.23083
C          9.78271         1.19969         0.77028
C         11.01366         0.47082         0.51566
C        -10.14608         2.87087        -0.63145
C         -8.82392         3.60953        -0.70595
C         -7.65895         2.90790        -1.04232
C         -6.39487         3.57134        -1.04509
C         -5.18536         2.85921        -1.34702
C         -3.99840         3.40628        -0.54623
C         -2.62739         2.78621        -0.59978
C         -1.62561         3.38493         0.37283
C         -0.29441         2.60726         0.39226
C          0.92991         3.32995         0.82765
C          2.23505         2.57414         0.84769
C          3.52966         3.30720         1.05728
C          4.77105         2.56915         0.77377
C          5.99047         3.32575         0.81663
C          7.25266         2.59099         1.06751
C          8.49425         3.36074         0.68463
C          9.76759         2.56166         0.78553
C         -8.76531         4.99288        -0.45447
C         -7.53465         5.67235        -0.41360
C         -6.32682         4.94859        -0.63545
C         -5.06060         5.61713        -0.46390
C         -3.87680         4.90650        -0.53052
C         -2.58816         5.55428        -0.36031
C         -1.45253         4.86720         0.03056
C         -0.18707         5.52919         0.35219
C          0.92038         4.81443         0.82670
C          2.20853         5.49835         1.11173
C          3.51889         4.77882         1.02054
C          4.72628         5.43279         0.94794
C          5.98391         4.70719         0.95302
C          7.23634         5.43693         1.20507
C          8.43932         4.77023         1.21930
C         -7.48042         7.10492        -0.19208
C         -6.29739         7.77725        -0.03486
C         -5.02490         6.98867         0.16785
C         -3.76871         7.75195        -0.15273
C         -2.59771         7.02432        -0.73536
C         -1.18615         7.73240        -0.65158
C         -0.11268         6.97458         0.13725
C          1.04273         7.66815         0.38284
C          2.23622         6.99315         0.90547
C          3.54151         7.68251         0.65753
C          4.80081         6.90554         0.79396
C          6.02713         7.59918         1.24802
C          7.16600         6.86747         1.46832
C         -6.22367         9.21372         0.10102
C         -5.02621         9.85951         0.15186
C         -3.76770         9.14910        -0.03035
C         -2.53551         9.83384         0.00586
C         -1.28636         9.17005        -0.11909
C         -0.11669         9.83220         0.18228
C          1.20058         9.13410        -0.01447
C          2.37370         9.81886         0.66110
C          3.53202         9.14785         0.90524
C          4.78125         9.74551         1.34233
C          5.93478         9.02773         1.48243
C        -10.85309        -0.51079         1.00614
C         -9.69597        -1.25474         0.67501
C         -8.68852        -0.61903        -0.09778
C         -7.48451        -1.38951        -0.46183
C         -6.20897        -0.61846        -0.70995
C         -5.13599        -1.48547        -1.41478
C         -3.89274        -0.66514        -1.72638
C         -2.57588        -1.37012        -2.08199
C         -1.32865        -0.70747        -1.33022
C          0.02660        -1.36590        -1.25101
C          1.11480        -0.75606        -0.53156
C          2.27344        -1.54131        -0.23459
C          3.52039        -0.94838         0.13708
C          4.79946        -1.67946         0.03487
C          5.98325        -1.00607         0.30926
C          7.25956        -1.74712         0.23430
C          8.56329        -1.06184         0.67099
C          9.82575        -1.66137         0.18324
C         11.03338        -0.86327         0.24763
C         -9.49858        -2.58915         1.19906
C         -8.32309        -3.29369         1.04138
C         -7.27458        -2.74405         0.15315
C         -5.85831        -3.19512         0.37803
C         -4.70385        -2.65401        -0.48155
C         -3.87990        -3.71212        -1.26154
C         -2.66329        -2.92417        -1.83927
C         -1.60087        -3.62144        -2.32993
C          0.28495        -2.59662        -1.84335
C          1.23101        -3.53433        -1.30387
C          2.09279        -2.94984        -0.35959
C          3.87581        -3.95565        -0.44476
C          4.91414        -3.02938        -0.51117
C          6.12716        -3.37993        -1.35568
C          7.35642        -2.95201        -0.58085
C          8.59320        -3.65334        -0.63045
C          9.81863        -2.95119        -0.28331
C         -8.06157        -4.54825         1.70237
C         -6.83093        -5.17147         1.69438
C         -5.63979        -4.46330         1.13183
C         -4.35607        -5.21993         0.88490
C         -3.57168        -4.97076        -0.38007
C         -2.82691        -6.00697        -0.87979
C         -1.27287        -5.00819        -2.20015
C         -0.02093        -5.56730        -2.01820
C          1.21966        -4.97913        -1.55242
C          2.41275        -5.76537        -1.37410
C          3.68724        -5.09398        -1.26570
C          4.90068        -5.67922        -1.81133
C          6.17341        -4.87400        -1.75677
C          7.46914        -5.64404        -1.64534
C          8.66556        -4.95005        -1.14536
C         -6.60858        -6.39639         2.42324
C         -5.41201        -7.06182         2.38459
C         -4.31080        -6.58823         1.49524
C         -3.46898        -7.66995         0.89844
C         -2.51800        -7.30926        -0.21130
C         -1.15719        -8.09792        -0.25992
C          0.05231        -7.63633        -0.98404
C          1.33596        -7.94543        -0.64729
C          2.48684        -7.22951        -1.24127
C          3.70821        -7.88627        -1.22789
C          4.93926        -7.23619        -1.70145
C          6.25669        -7.83058        -1.38872
C          7.41169        -7.10490        -1.43683
C         -5.10218        -8.19300         3.24075
C         -4.00042        -8.96032         3.05039
C         -3.20212        -8.85832         1.80495
C         -1.86748        -9.44816         1.75454
C         -0.86766        -9.01950         0.88365
C          0.46455        -9.46395         1.09493
C          1.57181        -9.01669         0.32174
C          2.81592        -9.62472         0.33128
C          3.75533        -9.34822        -0.81958
C          5.14495        -9.86731        -0.56580
C          6.26883        -9.19279        -0.86695
O         -0.68966         7.78261        -1.97763
O          6.98218        -5.09440        -2.95265
O         -2.36316        -5.92047        -2.21114
O         -2.99911         7.11077        -2.13083
H         -2.14385         7.40073        -2.59795
O         -3.52985        -5.47590         2.07249
O          1.45637         9.19699        -1.44352
H          0.71065         8.67400        -1.88195
O          2.13250         6.43889         2.25624
O         -0.09860        -6.95617        -2.19398
O         -2.32833        -1.15433        -3.47844
H         -3.13952        -1.38520        -3.97655
O          4.28034         7.30232        -0.54441
O          0.11126         2.48144         1.77490
O          8.87039         0.19684         2.64151
H          8.24034        -0.47525         2.98403
O          6.43475         0.81097        -1.06273
H          5.80305         0.35287        -1.65836
O         -8.28016         1.30606        -2.71875
H         -7.56517         1.58989        -3.32707
O          6.06713        -2.60233        -2.58869
H          6.56531        -3.11804        -3.26439
O         -4.12184        -8.93238         0.63349
O         -1.69737        -0.19660        -0.00422
O          2.80764         2.71666         2.19442
O         -2.15044         3.38449         1.72389
H         -1.40711         3.10437         2.31910
O         -2.29302        -8.42845        -1.10390
O         -3.06356         1.43234        -2.51709
O         -7.67389        -2.60412        -1.24508
O          2.84741        -3.75077         0.50240
O         -5.49384        -3.15372         1.79463
O          7.86215        -1.94273         1.58561
O        -11.08763         3.58642         0.16892
H        -10.75500         3.61041         1.08921
O          3.24426       -10.13822        -1.94721
H          2.35465        -9.78984        -2.17076
O          0.45991         2.23997        -1.79573
H          0.60626         1.60819        -2.53130
O          4.78329        -6.52929        -2.96564
O         -4.53099         3.03012         0.78357
H         -3.80354         3.15845         1.44752
O         -4.64021        -4.24659        -2.37218
H         -4.07296        -4.92272        -2.81241
O         -5.74155        -0.28888         0.62768
H         -4.80886         0.01698         0.57325
O         -3.73556        -2.06920         0.41225
H         -3.99141        -2.31783         1.33619
O         -4.94883         6.73040         1.61974
H         -5.67233         6.10635         1.84360
O         -5.67262        -1.86716        -2.68860
H         -5.56044        -2.83792        -2.82812
O         -0.52485        -2.93290        -2.92985
O          7.03635         1.86028         2.32558
O          8.32449         3.51329        -0.77769
H          9.00221         4.14711        -1.09407
H         11.98485        -1.35928         0.00478
H         11.95085         1.04645         0.47180
H         10.70264         3.09723         0.54547
H          9.37236         5.31930         1.42134
H          8.08327         7.37375         1.80732
H          6.85201         9.54617         1.80149
H          4.79264        10.82848         1.53772
H          2.32420        10.91010         0.80424
H         -0.14081        10.89432         0.47953
H         -2.53817        10.91162         0.23932
H         -4.98831        10.95302         0.26067
H         -7.16328         9.78421         0.14881
H         -8.42872         7.66471        -0.20888
H         -9.69784         5.53722        -0.24437
H        -10.57868         2.82439        -1.66881
H        -11.89829         1.37634         0.85317
H        -11.65040        -0.98899         1.59348
H        -10.29047        -3.00718         1.83984
H         -8.89214        -5.02606         2.24497
H         -7.42851        -6.78417         3.04662
H         -5.76012        -8.37690         4.10328
H         -3.74618        -9.75740         3.76462
H         -1.56983       -10.08245         2.60392
H          0.63646       -10.22802         1.86720
H          3.00268       -10.49045         0.98392
H          5.21722       -10.88723        -0.15879
H          7.25305        -9.64487        -0.66974
H          8.35077        -7.59558        -1.13552
H          9.63068        -5.47681        -1.16769
H         10.77005        -3.43570        -0.55097
