         210
 CSIRO Nanostructure Databank - Neutral Graphene Oxide Data Set
C         30.44912        31.64661        -0.10049
C         30.60766        32.85736        -0.34855
C         30.73783        35.92558        -1.30071
C         30.70491        37.15627        -1.46615
C         30.58767        40.31947        -1.27208
C         30.47680        41.55346        -1.11223
C         32.78920        28.99926         0.53167
C         31.65456        29.48869         0.60476
C         32.82901        31.67888         0.60829
C         31.44984        30.96486         0.83419
C         32.78032        33.19869         0.59399
C         31.67409        33.79475        -0.32006
C         33.08864        35.82657        -0.90559
C         31.75175        35.06881        -0.77677
C         33.01308        37.35637        -0.82856
C         31.79661        38.06956        -1.21649
C         32.93096        40.29691        -1.06642
C         31.70912        39.45135        -1.21513
C         32.84615        41.75901        -0.76327
C         31.58004        42.42901        -0.83452
C         32.75683        44.41500        -0.37708
C         31.67299        43.82522        -0.61858
C         35.49127        27.42400         0.52747
C         35.31623        28.84190         0.53501
C         34.10888        29.52989         0.51253
C         35.33106        31.66015         0.59755
C         34.05698        30.98681         0.54465
C         35.31280        33.12935         0.75622
C         34.10704        33.87347         0.33260
C         35.39836        35.95576         0.08133
C         34.18856        35.19848        -0.06797
C         35.38612        37.39239        -0.07309
C         34.15621        38.06444        -0.49612
C         35.26683        40.32806        -0.03057
C         34.19270        39.53162        -0.68288
C         35.30892        41.78780        -0.25342
C         34.06286        42.47296        -0.47501
C         35.27042        44.59077         0.02425
C         34.06644        43.90037        -0.28495
C         35.42700        45.95563         0.35431
C         37.88476        27.36076         0.51379
C         36.57469        26.81021         0.53404
C         37.83638        28.81585         0.51360
C         36.58885        29.53162         0.54349
C         37.84293        31.67082         0.55445
C         36.57044        30.96619         0.57327
C         37.88155        33.09425         0.62321
C         36.62375        33.85751         0.77388
C         37.81360        35.99444         0.54296
C         36.62601        35.30589         0.45002
C         37.79401        37.48504         0.70671
C         36.53779        38.12428         0.20144
C         37.79293        40.34660         0.28972
C         36.52646        39.59228         0.34441
C         37.76189        41.71648         0.11480
C         36.51950        42.46625        -0.03472
C         37.74757        44.61394         0.37322
C         36.53393        43.90683         0.06854
C         37.77337        45.97209         0.72830
C         36.47991        46.54673         0.70026
C         40.33532        24.58186         0.53475
C         39.27046        25.23576         0.55450
C         40.36614        27.31508         0.45551
C         39.09345        26.64635         0.52186
C         40.31358        28.77079         0.22920
C         39.06230        29.52586         0.42013
C         40.32586        31.68472         0.43741
C         39.07645        30.95539         0.45540
C         40.32439        33.11151         0.47396
C         39.08570        33.79941         0.58893
C         40.26145        35.95071         0.11006
C         39.10614        35.29025         0.85404
C         40.25012        37.45829        -0.07628
C         39.03611        38.22103         0.25555
C         40.30541        40.31556         0.06344
C         39.04460        39.59865         0.20431
C         40.32101        41.71612         0.08244
C         39.04113        42.44333        -0.04204
C         40.32877        44.61402         0.46696
C         39.04780        43.93669         0.14446
C         40.33003        45.96144         0.82008
C         39.00713        46.60154         1.30222
C         40.25418        48.66151         1.14978
C         39.15899        48.08592         1.06285
C         42.91468        24.58942         0.62397
C         41.63774        25.15316         0.54293
C         42.85356        27.38451         0.65332
C         41.60979        26.62837         0.49829
C         42.83842        28.79507         0.72230
C         41.64730        29.54196         0.33710
C         42.78433        31.73467         0.49054
C         41.58521        31.01272         0.48512
C         42.79344        33.14636         0.32047
C         41.56216        33.84606         0.36236
C         42.74711        35.97801        -0.04651
C         41.55910        35.26385         0.17934
C         42.74406        37.42049        -0.20533
C         41.53568        38.15944        -0.14690
C         42.75405        40.31294        -0.13854
C         41.54221        39.59600        -0.06190
C         42.78156        41.72575         0.02183
C         41.54478        42.44747         0.11619
C         42.79906        44.55481         0.42077
C         41.55478        43.87527         0.29806
C         42.80014        45.96810         0.66854
C         41.57087        46.69262         0.84753
C         42.85530        48.70645         1.08141
C         41.57723        48.14064         1.02134
C         43.93320        25.33594         0.79674
C         45.33897        27.42289         1.36295
C         44.11307        26.69730         0.88140
C         45.37318        28.86921         0.83905
C         44.08030        29.56083         0.97369
C         45.30701        31.70740         0.24046
C         44.07432        31.05911         0.74010
C         45.24153        33.11081        -0.10237
C         44.02985        33.83313         0.04095
C         45.17131        35.97206        -0.41579
C         43.99240        35.26583        -0.12861
C         45.19012        37.39860        -0.47024
C         43.98282        38.11004        -0.35044
C         45.27323        40.25986        -0.15883
C         43.99566        39.59758        -0.60616
C         45.28397        41.65466         0.10029
C         44.03539        42.42026         0.10278
C         45.29374        44.52842         0.39236
C         44.04223        43.82418         0.29303
C         45.28598        45.91021         0.66058
C         44.07273        46.64134         0.75844
C         43.90767        48.01231         0.97872
C         47.66125        27.52962         0.72873
C         46.66610        26.81201         0.94603
C         47.81000        28.89975         0.39610
C         46.51323        29.56678         0.43986
C         47.64753        31.57216        -0.68106
C         46.47085        30.97603         0.07680
C         47.64953        33.08903        -0.70957
C         46.44587        33.76968        -0.53773
C         47.64918        35.98117        -1.06069
C         46.36327        35.21440        -0.81922
C         47.66544        37.41712        -0.70621
C         46.45809        38.10918        -0.52146
C         47.73025        40.17163         0.01171
C         46.47902        39.52374        -0.22554
C         47.75240        41.55983         0.37423
C         46.51906        42.29498         0.34970
C         47.88866        44.43572         0.80309
C         46.56520        43.76955         0.35155
C         47.65069        45.81903         1.22534
C         46.60157        46.41323         0.90956
C         50.32548        29.15477         0.31632
C         48.99961        29.62426         0.17543
C         50.18731        31.68631        -0.58703
C         48.99152        30.98752        -0.27158
C         50.09812        33.03438        -1.12846
C         48.88003        33.77397        -1.06324
C         50.09722        35.95888        -1.20892
C         48.91101        35.21330        -1.11986
C         50.13132        37.35338        -0.81023
C         48.91991        38.07294        -0.53931
C         50.20024        40.12641         0.04677
C         48.95412        39.45164        -0.14289
C         50.22666        41.49147         0.51820
C         48.99241        42.17246         0.73560
C         50.29493        44.07964         1.50434
C         48.89895        43.53830         1.46824
C         51.42448        29.73545         0.12159
C         52.55534        31.88470        -0.80278
C         51.48994        31.04246        -0.39983
C         52.51193        32.93808        -1.47004
C         51.29191        33.70470        -1.68084
C         52.51518        36.08025        -1.54922
C         51.30629        35.27711        -1.71212
C         52.45748        37.19498        -0.99508
C         51.36916        38.04858        -0.66476
C         52.55143        40.18338         0.01078
C         51.41251        39.39216        -0.22387
C         52.62743        41.36790         0.43990
C         51.51630        42.16116         0.74012
C         51.34784        43.48102         1.25212
O         39.06385        43.34737        -1.20792
O         39.97173        36.50215        -1.20206
O         47.62848        44.24001        -0.58271
O         44.10408        30.51040         2.11207
O         51.12980        34.46904        -2.87581
O         33.96078        39.96703        -2.05963
O         35.53502        40.00649         1.37368
O         46.77497        35.61518        -2.18014
O         41.07801        29.14893        -0.96552
O         35.91255        33.58897         2.03261
O         38.96542        46.37959         2.72012
H         38.12692        46.75070         3.06700
O         45.26560        27.47218         2.78427
H         46.00326        28.01920         3.12520
O         39.38285        35.45234         2.27691
H         38.89561        36.25702         2.58737
O         33.52243        35.55770        -2.27575
H         32.86603        35.96355        -2.88240
O         47.44529        31.14101        -2.07274
H         48.05935        31.65446        -2.64013
O         48.42239        43.30436         2.79499
H         49.11234        42.82830         3.30192
O         37.78670        37.69620         2.19482
H         36.86007        37.59237         2.50526
O         32.39936        33.63535         1.93099
H         31.78940        32.95646         2.30878
O         43.98731        39.74069        -2.07820
H         43.19142        39.27774        -2.41731
O         31.03457        31.20942         2.16137
H         30.14226        30.82658         2.29346
