         410
 CSIRO Nanostructure Databank - Neutral Graphene Oxide Data Set
C         27.92688        27.39251         0.75544
C         27.93712        28.81897         0.80420
C         26.74873        29.56039         0.99236
C         27.98649        31.66427         0.91846
C         26.77768        30.94572         1.04839
C         28.00700        33.12763         0.93365
C         26.79229        33.86686         0.89791
C         28.00974        35.98151         0.86864
C         26.79642        35.24091         0.88041
C         27.99987        37.41838         0.85094
C         26.76027        38.16849         0.78255
C         27.92248        40.34135         0.95345
C         26.71482        39.52318         0.76431
C         27.93360        41.79032         0.61840
C         26.70952        42.50002         0.53214
C         27.89625        44.57996         0.12495
C         26.68426        43.85469         0.27797
C         27.88246        45.97634        -0.13365
C         30.35779        27.34614         0.49090
C         29.09416        26.68707         0.60648
C         30.39112        28.77239         0.51895
C         29.17717        29.50872         0.67572
C         30.44932        31.61856         0.65031
C         29.19827        30.93657         0.73831
C         30.48383        33.05991         0.98752
C         29.22191        33.83329         0.96132
C         30.48266        35.99868         0.83541
C         29.25032        35.26623         0.90600
C         30.44940        37.39492         0.73699
C         29.21985        38.11073         0.79994
C         30.44331        40.32441         0.47957
C         29.24291        39.58664         0.93117
C         30.41803        41.75658         0.36158
C         29.15673        42.47317         0.45436
C         30.35625        44.63123         0.10693
C         29.14240        43.89426         0.23394
C         30.31181        46.00253        -0.13733
C         29.06659        46.66489        -0.28032
C         32.78443        24.48091         0.26847
C         31.60698        25.18295         0.36932
C         32.81980        27.30424         0.21693
C         31.58209        26.60802         0.35944
C         32.83404        28.73742         0.20773
C         31.63288        29.47255         0.38346
C         32.89368        31.62187         0.23874
C         31.64697        30.91322         0.45643
C         32.94660        33.07842         0.32521
C         31.79759        33.79090         0.94080
C         32.97189        35.97771         0.33696
C         31.83148        35.32178         1.08878
C         32.99348        37.44062         0.29723
C         31.69832        38.19208         0.58734
C         32.75090        40.31756        -0.37181
C         31.59072        39.61074         0.18854
C         32.82436        41.77203        -0.18701
C         31.63203        42.45278         0.14090
C         32.87384        44.63588        -0.19307
C         31.66972        43.93802         0.39993
C         32.83728        45.99663        -0.31077
C         31.56490        46.79817        -0.40806
C         32.86480        48.74652         0.45588
C         31.68359        48.08572         0.37609
C         35.32785        22.98888         0.03360
C         35.27769        24.40820         0.08377
C         34.03962        25.14491         0.14688
C         35.28647        27.27186        -0.07327
C         34.04340        26.56801         0.10591
C         35.25267        28.70007        -0.25409
C         34.06783        29.43515        -0.04374
C         35.20267        31.60614        -0.61224
C         34.03421        30.88248        -0.09461
C         35.20597        33.10973        -0.66054
C         34.04504        33.81059        -0.09560
C         35.27916        35.96405        -0.53806
C         34.09208        35.26997        -0.07302
C         35.29534        37.41010        -0.62580
C         34.11627        38.11542        -0.35213
C         35.31706        40.29935        -0.70239
C         34.05798        39.54897        -0.63700
C         35.29294        41.71381        -0.64904
C         34.06879        42.44783        -0.41094
C         35.31306        44.54624        -0.69697
C         34.09976        43.87610        -0.41250
C         35.33229        46.02784        -0.79566
C         34.06348        46.79070        -0.54363
C         35.33485        48.85496         0.09901
C         34.11189        48.18181        -0.01554
C         35.35158        50.31555         0.13760
C         37.77720        22.99074         0.04931
C         36.52670        22.30843        -0.02015
C         37.75560        24.39240         0.12696
C         36.51758        25.11910         0.07752
C         37.79689        27.23384        -0.19233
C         36.49891        26.53923        -0.04337
C         37.81421        28.69606        -0.42209
C         36.51001        29.40771        -0.59856
C         37.72992        31.66603        -0.26586
C         36.51557        30.89256        -0.67968
C         37.75181        33.14372        -0.46614
C         36.48392        33.84605        -0.74117
C         37.67046        35.93674        -1.38965
C         36.47360        35.22584        -0.77387
C         37.77273        37.37845        -0.91356
C         36.50070        38.14326        -0.90588
C         37.77113        40.29614        -1.03972
C         36.53441        39.56186        -0.85777
C         37.75749        41.68292        -1.02113
C         36.53466        42.42536        -0.80223
C         37.78662        44.62216        -1.14862
C         36.52822        43.83810        -0.81939
C         37.79083        46.00429        -0.55136
C         36.59635        46.71766        -0.47686
C         37.79221        48.58694         0.39830
C         36.56296        48.06762        -0.00983
C         37.77965        50.78264         0.26814
C         36.40516        51.19403         0.06108
C         40.31531        20.18286        -0.10608
C         39.10585        20.86803        -0.05484
C         40.29554        22.99540         0.07913
C         39.05390        22.27261         0.03639
C         40.31120        24.40998         0.20994
C         39.02798        25.10722         0.37732
C         40.33689        27.31248         0.12663
C         39.04493        26.60406         0.32721
C         40.33097        28.74164        -0.03819
C         39.03551        29.44997        -0.00743
C         40.29723        31.67844        -0.22218
C         39.02838        30.94938        -0.05077
C         40.26130        33.10628        -0.53786
C         39.05005        33.79174        -0.72317
C         40.33503        35.89729        -1.37053
C         39.00456        35.14602        -1.30464
C         40.33350        37.37848        -1.29613
C         39.05546        38.10556        -1.06486
C         40.33690        40.23440        -1.13353
C         39.02917        39.55630        -1.48846
C         40.34798        41.69821        -1.21078
C         39.02821        42.44026        -1.22004
C         40.26792        44.52002        -0.63678
C         39.06502        43.86927        -0.87822
C         40.27879        45.94364        -0.35677
C         39.03649        46.63706        -0.28994
C         40.23817        48.78917         0.10707
C         39.03440        48.00265         0.08982
C         40.20833        50.24032        -0.42180
C         38.96175        51.13882        -0.33456
C         40.26290        52.97842        -1.29087
C         39.06824        52.36828        -1.10574
C         42.79682        20.19110        -0.12236
C         41.54581        20.87663        -0.08210
C         42.77597        23.02196         0.05055
C         41.53969        22.29946         0.00179
C         42.75614        24.42998         0.15844
C         41.52468        25.13518         0.21243
C         42.78646        27.31113         0.09668
C         41.53494        26.59658         0.19821
C         42.80164        28.81524         0.30264
C         41.49356        29.50285        -0.01583
C         42.78015        31.64921        -0.07764
C         41.47686        30.94003        -0.12603
C         42.77925        33.13585        -0.32882
C         41.51194        33.82302        -0.65227
C         42.80784        35.89079        -1.01042
C         41.56074        35.18227        -0.95903
C         42.78989        37.33736        -1.29584
C         41.50694        38.07042        -1.18240
C         42.77768        40.23007        -0.78327
C         41.52272        39.53100        -1.04111
C         42.75286        41.65855        -0.56797
C         41.55987        42.40762        -0.77825
C         42.72226        44.49044        -0.19229
C         41.52247        43.79239        -0.54586
C         42.71096        45.90546        -0.03307
C         41.46986        46.64581        -0.07453
C         42.74713        48.80939         0.07049
C         41.44254        48.08540         0.08099
C         42.78806        50.31685        -0.06594
C         41.47118        51.04606        -0.11474
C         42.80195        53.01937        -1.06019
C         41.49818        52.44534        -0.67569
C         43.98713        20.88508        -0.09164
C         45.27194        23.02922        -0.06538
C         44.02791        22.30445        -0.01858
C         45.28063        24.44821         0.00462
C         44.03497        25.17126         0.43980
C         45.22129        27.29690        -0.24628
C         43.99541        26.62652         0.04374
C         45.16058        28.70488        -0.67764
C         43.98638        29.51092        -0.32866
C         45.24817        31.61163        -0.65091
C         44.01729        30.88359        -0.37990
C         45.24499        33.07014        -0.69169
C         44.05454        33.79700        -0.67630
C         45.28423        35.94726        -0.84200
C         44.03410        35.21973        -0.87762
C         45.30099        37.35950        -0.77027
C         44.07893        38.11236        -1.09344
C         45.20157        40.16313        -0.26670
C         44.00542        39.53754        -0.71965
C         45.11061        41.55195         0.20105
C         43.91928        42.34253        -0.14083
C         45.16195        44.44298         0.32883
C         43.93270        43.74905         0.01128
C         45.15009        45.86585         0.44741
C         43.92822        46.58101         0.26012
C         45.04621        48.56315         1.03561
C         43.91551        47.98792         0.48080
C         45.13278        50.77097         0.73643
C         44.00717        51.20188         0.06001
C         43.97224        52.43538        -0.69643
C         47.71094        23.06019        -0.21358
C         46.52717        22.36401        -0.22071
C         47.73611        24.48571        -0.14421
C         46.48079        25.17768        -0.11203
C         47.69992        27.34152        -0.36965
C         46.45553        26.62032        -0.24577
C         47.74290        28.73933        -0.63242
C         46.47913        29.45007        -0.93611
C         47.69291        31.62513        -1.10122
C         46.43516        30.91568        -0.83650
C         47.69626        33.07786        -0.92700
C         46.50714        33.77581        -0.78743
C         47.71125        35.94957        -0.58738
C         46.50709        35.23195        -0.74051
C         47.71754        37.34821        -0.38322
C         46.48872        38.06355        -0.45996
C         47.67436        40.18440         0.08805
C         46.44398        39.48593        -0.20694
C         47.68526        41.57651         0.34419
C         46.41224        42.29072         0.51391
C         47.61961        44.45483         0.61350
C         46.39179        43.75760         0.46177
C         47.60695        45.87399         0.77599
C         46.36485        46.56596         0.72833
C         47.52889        48.75129         1.08944
C         46.33426        47.97012         0.98766
C         47.54653        50.18917         0.87703
C         46.53037        51.07961         0.60023
C         50.19138        24.56513         0.27480
C         48.94519        25.22450        -0.01401
C         50.11365        27.41062         0.11995
C         48.92558        26.65782        -0.09910
C         50.16114        28.80380        -0.13320
C         48.96573        29.44218        -0.57721
C         50.30090        31.59158        -0.87569
C         49.02354        30.85089        -1.01430
C         50.28101        33.05434        -1.15340
C         48.97417        33.79982        -1.06961
C         50.25626        35.92357        -0.29696
C         48.97513        35.18758        -0.50971
C         50.20010        37.39709        -0.19233
C         48.95648        38.06714        -0.15955
C         50.14873        40.17831         0.29066
C         48.92684        39.47814         0.04744
C         50.13162        41.59413         0.54089
C         48.89880        42.29929         0.52387
C         50.04020        44.46494         0.97195
C         48.85991        43.74171         0.69940
C         50.04481        45.88581         1.11343
C         48.80809        46.60380         1.02847
C         50.01251        48.70906         1.37389
C         48.77113        48.03444         1.15726
C         51.29203        25.26015         0.66445
C         52.58781        27.52597         0.82986
C         51.27424        26.72590         0.70684
C         52.61137        28.89241         0.27471
C         51.42370        29.53367        -0.10225
C         52.82473        31.54462        -0.85148
C         51.45735        30.93328        -0.51743
C         52.85635        33.07635        -0.85511
C         51.55926        33.83193        -0.97394
C         52.73505        35.93099        -0.41194
C         51.54747        35.25069        -0.56862
C         52.69572        37.41461        -0.32706
C         51.40850        38.11133        -0.04899
C         52.63503        40.14077         0.80598
C         51.38958        39.48182         0.25032
C         52.59967        41.64642         0.80019
C         51.36387        42.29017         0.81495
C         52.59770        44.50175         1.29205
C         51.28107        43.71215         1.19438
C         52.54021        45.96277         1.16216
C         51.28098        46.61667         1.24270
C         51.20680        48.03593         1.39050
C         55.03975        27.46440         0.91499
C         53.86160        26.80698         0.99721
C         55.07909        28.88046         0.63457
C         53.89513        29.57097         0.25063
C         55.18713        31.65163         0.07945
C         53.97749        30.94088        -0.08824
C         55.22841        33.10675        -0.08170
C         54.04351        33.82040        -0.37557
C         55.22457        35.96894        -0.09940
C         54.01069        35.24076        -0.34646
C         55.23808        37.40215         0.00957
C         53.98308        38.15897        -0.11875
C         55.12984        40.25758         0.48165
C         53.94025        39.55598         0.33981
C         55.09958        41.70473         0.69982
C         53.84641        42.37453         0.86807
C         55.02786        44.54363         0.82039
C         53.83940        43.78902         0.97665
C         54.96423        45.97771         0.83273
C         53.76877        46.65061         0.95786
C         56.29633        29.58085         0.72581
C         56.34026        30.94644         0.50101
C         56.41842        33.84411         0.11733
C         56.41974        35.22561         0.07848
C         56.40644        38.16047         0.23043
C         56.36730        39.54004         0.36677
C         56.28162        42.47130         0.62753
C         56.25439        43.85811         0.65880
O         42.85404        32.57905         1.05070
O         48.37366        31.10788        -2.30112
O         51.91021        43.99112         2.48852
O         44.88314        49.77470         1.69920
O         41.35536        52.15570         0.79413
O         49.56724        35.23563         0.84401
O         33.10512        39.86402        -1.73164
O         53.36356        38.01853        -1.49729
O         37.53305        32.52935         0.89893
O         32.69027        38.03591         1.64506
O         42.95342        49.45676        -1.27468
O         38.93575        25.94403         1.61853
O         31.33026        33.21572         2.21022
O         39.74744        35.28072        -2.55472
O         52.42528        33.61213        -2.15188
O         38.90029        30.20914         1.23387
O         37.85480        49.72343         1.19575
O         49.60876        33.54855        -2.36551
O         45.56795        41.73721         1.58630
O         28.66256        40.05484         2.19258
O         45.68069        28.90396        -2.03421
O         39.73563        42.16529        -2.50011
O         37.24193        36.03527        -2.72104
O         34.89963        32.31653        -1.86701
O         38.56326        37.74835         0.28279
O         51.69270        27.33307         1.98204
O         43.58682        37.77994        -2.44496
O         34.59484        46.62749        -1.91925
O         36.58363        30.11283        -1.90612
O         38.06119        27.78202        -1.54151
O         31.46419        47.18864        -1.81889
H         32.36711        47.40513        -2.13944
O         42.99311        28.98806         1.74977
H         42.21215        28.60610         2.20446
O         32.13516        35.59469         2.48481
H         31.74332        34.85347         3.00539
O         31.87120        44.06826         1.85553
H         31.14907        43.57264         2.29821
O         38.97148        39.53165        -2.94193
H         39.16622        40.44889        -3.25197
O         44.13061        25.21126         1.92034
H         44.16787        24.28232         2.23416
O         52.59982        39.77508         2.25137
H         51.92535        40.34480         2.68137
O         37.77467        44.81751        -2.60415
H         38.03060        43.96873        -3.02552
O         40.29666        49.97939        -1.86434
H         41.20324        49.61904        -2.03708
O         53.05371        31.11616        -2.22575
H         52.65351        31.80965        -2.80375
H         26.96747        26.86328         0.84663
H         25.79356        29.02708         1.10081
H         25.83221        31.47977         1.20961
H         25.82773        33.34422         0.87623
H         25.83210        35.76400         0.86217
H         25.81570        37.62098         0.66566
H         25.74997        40.02008         0.59137
H         25.76009        41.96719         0.67561
H         25.72567        44.38796         0.20765
H         26.91746        46.49431        -0.22936
H         29.04612        25.59066         0.57688
H         29.05667        47.73871        -0.51247
H         32.74697        23.38387         0.29706
H         30.67071        24.61904         0.47204
H         32.89881        49.71432         0.97838
H         30.77420        48.54166         0.79506
H         34.39614        22.40769         0.01410
H         34.35892        50.77354        -0.00016
H         36.50223        21.21255        -0.08340
H         36.18320        52.24586        -0.17785
H         40.31863        19.08526        -0.16843
H         38.17655        20.28384        -0.08493
H         40.33162        53.91593        -1.86193
H         38.14515        52.83990        -1.47606
H         42.80138        19.09320        -0.18020
H         42.80582        53.95880        -1.63225
H         44.92479        20.31477        -0.12862
H         44.92741        52.93669        -0.91482
H         48.65196        22.49999        -0.29579
H         46.56185        21.27049        -0.31163
H         48.55244        50.61397         0.74007
H         46.81597        52.06933         0.21134
H         50.23308        23.46762         0.27191
H         50.02611        49.79257         1.54905
H         52.19206        24.71913         0.98507
H         52.12943        48.60602         1.56365
H         55.98851        26.93981         1.09918
H         53.84064        25.74811         1.28733
H         55.89676        46.54340         0.69507
H         53.77175        47.74755         0.89463
H         57.20863        29.03978         1.01438
H         57.29557        31.47084         0.62913
H         57.37002        33.32677         0.29343
H         57.37188        35.75025         0.23026
H         57.38655        37.66575         0.26647
H         57.31901        40.07335         0.48714
H         57.25164        41.97302         0.50085
H         57.18708        44.43129         0.56190
