         480
 CSIRO Nanostructure Databank - Neutral Graphene Oxide Data Set
C         37.55591        50.10307        -0.68121
C         36.40198        50.81295        -0.88002
C         37.52075        52.92678        -0.45496
C         36.40655        52.25289        -0.81800
C         40.10237        48.65633        -0.57968
C         40.01028        50.06256        -0.29525
C         38.79349        50.74976        -0.35576
C         40.05509        52.92922        -0.31965
C         38.75218        52.21200         0.05489
C         40.09619        54.35928         0.14701
C         42.49085        48.62353        -0.03094
C         41.28140        47.97947        -0.48110
C         42.44601        49.99230         0.25707
C         41.24652        50.75185         0.06076
C         42.52622        52.85620         0.31914
C         41.28222        52.15179         0.12638
C         42.53924        54.28185         0.30563
C         41.27338        54.99022         0.33619
C         44.97321        45.82154        -0.27578
C         43.77489        46.50440        -0.23062
C         44.96126        48.55946         0.41071
C         43.72914        47.88373         0.06469
C         44.93093        49.93417         0.68514
C         43.63795        50.67006         0.87607
C         44.96983        52.83005         0.64811
C         43.73340        52.14411         0.54485
C         44.99547        54.25873         0.56287
C         43.77437        54.98194         0.40309
C         45.01899        57.07847         0.47340
C         43.83030        56.40629         0.33312
C         47.54292        44.41240        -0.40711
C         47.46022        45.77154        -0.19886
C         46.20157        46.47493         0.01976
C         47.47983        48.38903         0.99760
C         46.19906        47.82273         0.40486
C         47.44595        49.90637         1.22377
C         46.15094        50.66515         1.07290
C         47.43163        52.80161         0.96446
C         46.20325        52.12538         0.87229
C         47.45240        54.23531         0.89207
C         46.23096        54.95999         0.71690
C         47.47082        57.09792         0.93427
C         46.24198        56.38627         0.69807
C         47.52205        58.51571         0.93221
C         49.98756        44.39995        -0.72510
C         48.77769        43.74028        -0.63666
C         49.96546        45.87763        -0.72571
C         48.66798        46.59668        -0.39036
C         49.94176        48.55936         0.47153
C         48.73255        47.93267         0.25279
C         49.94805        49.82000         1.32672
C         48.70475        50.67334         1.12304
C         49.92197        52.84032         1.15196
C         48.68941        52.06470         1.11144
C         49.92637        54.22597         1.10877
C         48.67604        54.95911         1.04221
C         49.91942        57.08806         1.58570
C         48.67403        56.36489         1.12608
C         49.94739        58.56006         1.24569
C         48.73406        59.20637         1.02218
C         52.45359        41.53995        -0.83488
C         51.27817        42.25966        -0.88612
C         52.48260        44.32417        -0.45594
C         51.26128        43.67227        -0.70450
C         52.53577        45.80345        -0.41900
C         51.24181        46.62614        -0.51536
C         52.44073        48.58384         0.40079
C         51.20649        47.95088         0.11737
C         52.46998        49.95732         0.78727
C         51.23921        50.62194         1.24587
C         52.45776        52.86029         0.92729
C         51.21511        52.12921         1.26263
C         52.43829        54.26853         0.92289
C         51.18258        54.98499         1.09654
C         52.47769        57.10879         1.44569
C         51.18581        56.35764         1.21799
C         52.42995        58.58767         1.13880
C         51.20183        59.28146         1.22284
C         52.42056        61.40043         1.15536
C         51.23067        60.70690         1.22456
C         55.00146        40.07978        -1.00424
C         54.90671        41.38290        -0.49438
C         53.69244        42.14973        -0.51481
C         54.88337        44.22521         0.15697
C         53.70229        43.57422        -0.26086
C         54.86165        45.64660         0.50212
C         53.69336        46.46317         0.17413
C         54.93881        48.55794         0.55241
C         53.68957        47.84431         0.37200
C         54.90063        49.97036         0.59909
C         53.67673        50.68684         0.73581
C         54.87591        52.87469         0.54844
C         53.66917        52.14073         0.77856
C         54.87104        54.29801         0.50674
C         53.65496        55.00691         0.75427
C         54.85989        57.15063         0.60992
C         53.67877        56.41742         0.86767
C         54.86797        58.58602         0.65701
C         53.64689        59.29795         0.94104
C         54.89656        61.44485         0.80077
C         53.65356        60.72486         0.98148
C         55.00215        62.84985         0.97978
C         57.42889        39.95673        -0.65607
C         56.20803        39.36189        -1.00521
C         57.42801        41.33961        -0.25133
C         56.13541        41.97958         0.05521
C         57.44451        44.17596         0.36668
C         56.13728        43.48074         0.39831
C         57.53225        45.66142         0.69248
C         56.19401        46.39484         0.70263
C         57.40799        48.50026         0.20000
C         56.17842        47.83797         0.47254
C         57.42540        49.96541         0.35013
C         56.15948        50.72723         0.60815
C         57.28418        52.90091         0.13272
C         56.11361        52.19096         0.38107
C         57.30431        54.32405         0.08034
C         56.08119        55.02659         0.29101
C         57.27479        57.17370         0.04310
C         56.07113        56.45212         0.29860
C         57.26824        58.60336         0.00044
C         56.05146        59.30897         0.32029
C         57.20886        61.49893        -0.09885
C         56.05103        60.73035         0.39854
C         57.33103        62.92716         0.22097
C         56.19973        63.54260         0.76902
C         59.88367        37.07257        -0.55153
C         58.73075        37.77247        -0.67454
C         59.87772        39.92635        -0.51997
C         58.69025        39.22667        -0.62881
C         59.85226        41.39744        -0.60588
C         58.61006        42.07144        -0.16410
C         59.95133        44.19883         0.30397
C         58.61684        43.48443         0.12240
C         59.90294        45.66416        -0.04764
C         58.56630        46.32843        -0.23386
C         59.86221        48.52534        -0.20526
C         58.60981        47.82861        -0.05794
C         59.89383        49.97829        -0.20296
C         58.59515        50.69518        -0.19771
C         59.79273        52.91467         0.05993
C         58.53122        52.17770        -0.20207
C         59.80137        54.37127        -0.13299
C         58.52227        55.05199        -0.14572
C         59.71199        57.20825        -0.46593
C         58.48221        56.45737        -0.21106
C         59.71988        58.65390        -0.30625
C         58.48557        59.31184        -0.25596
C         59.74311        61.49271        -0.90331
C         58.44449        60.75451        -0.55210
C         59.74577        62.94344        -0.43103
C         58.60025        63.60325        -0.00416
C         59.85369        65.72151         0.23451
C         58.68476        65.02649         0.28713
C         62.48800        35.53864        -0.88326
C         62.51086        36.99052        -0.60574
C         61.18793        37.73233        -0.34172
C         62.45563        39.99073        -0.67517
C         61.17901        39.24168        -0.36661
C         62.44066        41.46447        -0.88646
C         61.14722        42.16483        -0.72406
C         62.38441        44.26367        -0.30689
C         61.17375        43.55744        -0.30880
C         62.35528        45.66586        -0.06839
C         61.09612        46.37327        -0.07990
C         62.34744        48.52563        -0.38633
C         61.07248        47.81688        -0.21782
C         62.35448        50.05238        -0.43747
C         61.05816        50.70377        -0.25779
C         62.32685        52.91759        -0.11166
C         61.08012        52.15388         0.02786
C         62.28817        54.32072        -0.01819
C         61.01952        55.02424        -0.09492
C         62.23223        57.23866         0.09914
C         61.07533        56.47120        -0.32418
C         62.23893        58.62951        -0.05033
C         60.98689        59.36091        -0.32796
C         62.28618        61.43896        -0.61867
C         60.99634        60.73260        -0.49692
C         62.27704        62.94922        -0.77568
C         60.97093        63.75516        -0.84428
C         62.30788        65.76401        -0.10761
C         61.09023        65.10256        -0.15941
C         62.40897        67.15133         0.32471
C         64.89728        35.54673        -1.46299
C         63.60496        34.86222        -1.18282
C         64.89675        37.06125        -1.54179
C         63.69973        37.74966        -1.01212
C         64.87176        39.98677        -1.52123
C         63.63649        39.20832        -1.16568
C         64.85130        41.48933        -1.42664
C         63.59996        42.18672        -1.02550
C         64.84759        44.30090        -0.66362
C         63.64301        43.61328        -0.69670
C         64.93766        45.68036        -0.14134
C         63.61515        46.37853         0.14666
C         64.88261        48.62984         0.02405
C         63.59639        47.87256         0.11778
C         64.85553        50.08944        -0.31290
C         63.58237        50.80798        -0.18248
C         64.77320        52.97076         0.11933
C         63.57222        52.22397        -0.10278
C         64.72414        54.36682         0.29665
C         63.49527        55.05088         0.16475
C         64.68432        57.23755         0.59577
C         63.39566        56.47262         0.68841
C         64.68681        58.59499         0.36670
C         63.47505        59.34386         0.10303
C         64.73048        61.45724        -0.17170
C         63.52877        60.75360        -0.15836
C         64.78212        62.88514        -0.56876
C         63.53620        63.67350        -0.50401
C         64.82639        65.76635        -0.27003
C         63.56417        65.04932        -0.35886
C         64.79438        67.27700        -0.39880
C         63.54952        67.85996         0.21797
C         67.01061        33.05960         0.45902
C         65.97323        33.60148        -0.22924
C         67.43731        35.61030        -0.75191
C         66.14841        34.82149        -1.02872
C         67.47443        37.09198        -1.05922
C         66.23222        37.80437        -1.55549
C         67.38767        40.06007        -1.00588
C         66.25550        39.34841        -1.74739
C         67.37418        41.43189        -0.96689
C         66.16280        42.20611        -1.36140
C         67.40707        44.43227        -0.99059
C         66.11721        43.69105        -1.12459
C         67.41055        45.82935        -0.49283
C         66.18207        46.49987        -0.30755
C         67.36154        48.67605        -0.14318
C         66.16634        47.90666        -0.11494
C         67.37747        50.07934         0.11481
C         66.12508        50.84881        -0.05388
C         67.26144        52.97448         0.64119
C         65.97540        52.19978         0.61060
C         67.19156        54.32217         0.86286
C         65.84725        54.99394         1.11303
C         67.17165        57.09667         0.29783
C         65.95490        56.56385         1.09055
C         67.23779        58.60479         0.43585
C         65.96901        59.32279         0.55284
C         67.28575        61.48308         0.07504
C         65.97697        60.83313         0.29791
C         67.32218        62.89939        -0.04941
C         66.08273        63.63872        -0.38722
C         67.28939        65.81438         0.01352
C         66.03292        65.09954        -0.20034
C         67.31348        67.17357         0.06057
C         66.04685        67.99236         0.13757
C         67.45606        69.96797        -0.51670
C         66.22081        69.34187        -0.50612
C         69.12735        31.83550         2.15052
C         69.38491        32.99729         1.28722
C         68.28211        33.71876         0.60297
C         69.63319        35.81054         0.46219
C         68.44962        35.02493         0.15076
C         69.69309        37.20909         0.12801
C         68.58443        37.90550        -0.48245
C         69.73417        40.06131        -0.14794
C         68.55333        39.30662        -0.52761
C         69.76161        41.47981        -0.18025
C         68.47449        42.25071        -0.30801
C         69.87207        44.37767        -0.41622
C         68.69984        43.61496        -1.02091
C         69.87286        45.80189        -0.37874
C         68.65293        46.51423        -0.44259
C         69.93356        48.74558         0.04751
C         68.62517        47.98388        -0.38429
C         69.78267        50.09098         0.60367
C         68.55187        50.78354         0.46697
C         69.62598        52.85561         1.25374
C         68.51356        52.22331         0.76436
C         69.69479        54.35602         1.38789
C         68.41676        55.08205         1.01969
C         69.72652        57.18197         0.94862
C         68.44036        56.41979         0.76728
C         69.69655        58.59176         0.41175
C         68.45520        59.29767         0.37872
C         69.72851        61.42808         0.05874
C         68.47668        60.74890         0.20350
C         69.75170        62.85419        -0.01796
C         68.52945        63.58385         0.02818
C         69.80198        65.74935        -0.12450
C         68.55608        65.05154         0.37683
C         69.80771        67.15331        -0.20706
C         68.60597        67.89458         0.37257
C         69.95055        70.01204         0.01715
C         68.60756        69.34595        -0.02786
C         69.94959        71.51453        -0.14122
C         71.27717        32.11628         3.27132
C         70.07232        31.37458         3.01161
C         71.52437        33.30312         2.65762
C         70.67892        33.78166         1.55315
C         71.87400        35.96329         1.42936
C         70.71627        35.21015         1.14661
C         71.95897        37.29236         1.06998
C         70.86947        37.94369         0.44634
C         72.13746        40.08345         0.32291
C         70.92630        39.36226         0.19087
C         72.16497        41.45552         0.20154
C         70.96719        42.18978         0.00472
C         72.17254        44.36441         0.42980
C         70.99300        43.64785        -0.00882
C         72.28575        45.70469         0.30817
C         71.19613        46.55826        -0.27494
C         72.02400        48.47324         1.24437
C         71.07323        47.91557         0.41800
C         71.96233        49.84369         1.62820
C         70.89238        50.65984         1.28594
C         72.10821        52.85520         1.17860
C         70.87333        52.12295         1.69392
C         72.09078        54.09534         0.67266
C         70.80905        54.86063         0.42108
C         72.06527        57.05374         0.12514
C         70.92978        56.37405         0.48642
C         72.10400        58.47310         0.06785
C         70.93242        59.24671         0.17048
C         72.15247        61.41145        -0.15808
C         70.95667        60.70016         0.00725
C         72.16425        62.80487        -0.29470
C         70.98270        63.54847        -0.23191
C         72.07752        65.69158        -0.94659
C         70.96201        65.00248        -0.43496
C         72.03831        67.06948        -1.14154
C         70.92273        67.82887        -0.75262
C         72.16428        70.04339        -1.17754
C         70.83795        69.32083        -1.05216
C         72.22630        71.37866        -1.00192
C         71.05724        72.14144        -0.58155
O         51.40871        51.35845         2.51725
O         62.04149        39.76303         0.71240
O         61.97619        37.22686         0.77496
O         60.28496        41.91502        -1.93814
O         49.16116        46.51534        -1.77365
O         67.25302        34.79364        -1.95716
O         57.08033        50.37923         1.71906
O         65.63717        50.65434        -1.42307
O         58.39945        51.43063        -1.46803
O         52.12871        46.48109        -1.66948
O         62.43974        62.07671        -1.94335
O         64.41264        45.80550         1.23001
O         60.40470        52.47715         1.32036
O         65.62312        63.20744        -1.73404
O         69.50395        48.63123        -1.35492
O         70.56927        32.84910         0.43422
O         67.21204        37.27271        -2.48222
O         64.80477        36.20846        -2.75752
O         62.48784        49.21227        -1.66524
O         63.94738        39.57931        -2.58780
O         60.50885        56.81443        -1.63039
O         65.41952        54.63182         2.43480
O         64.17168        48.46790         1.31613
O         66.70779        44.40274        -2.28846
O         55.40344        45.96366         1.85020
O         56.02078        42.45096         1.44035
O         46.66205        50.26556         2.41770
O         65.89132        60.28288         1.65874
O         57.42602        61.11997        -1.54168
O         65.51269        41.96935        -2.65168
O         70.14315        69.46637        -2.31643
H         70.68368        69.04264        -3.01480
O         60.20715        44.14387         1.75477
H         59.52115        44.72442         2.17770
O         40.10362        52.96478        -1.78102
H         40.92252        53.43661        -2.04100
O         63.16874        56.26164         2.12451
H         63.90812        55.65088         2.43515
O         69.90991        57.35557         2.41861
H         70.69568        57.92943         2.54776
O         68.00629        42.58999         1.03496
H         68.08538        41.79343         1.60073
O         66.55441        39.57805        -3.13418
H         65.75843        39.32991        -3.65345
O         60.76421        64.08304        -2.24781
H         60.72453        63.21143        -2.71714
O         65.83490        68.22971         1.56596
H         66.72343        68.32110         1.98362
O         49.88047        57.05017         3.08118
H         49.67965        56.12419         3.34009
O         68.61480        65.06578         1.83984
H         68.66698        66.01674         2.11446
O         58.04306        45.78528         2.04721
H         57.28316        45.62348         2.65264
O         58.09660        46.04715        -1.59142
H         58.74562        46.42381        -2.22273
O         69.05632        43.35063        -2.38521
H         68.26248        43.54172        -2.94084
O         70.94655        52.14882         3.14284
H         70.70037        53.06654         3.41709
O         64.75360        67.55116        -1.83019
H         64.01291        67.03572        -2.21455
O         52.66678        57.06677         2.91527
H         51.78204        57.26886         3.31197
O         70.08789        54.67472         2.74027
H         69.97464        55.65397         2.87257
O         59.79400        61.54510        -2.36477
H         58.85567        61.60593        -2.66613
O         38.67260        52.24637         1.51261
H         37.86809        51.75379         1.77831
O         70.34614        54.54100        -0.92186
H         71.06590        54.75551        -1.55115
O         71.59578        46.86956        -1.64849
H         70.91093        47.48789        -2.00387
O         65.64635        51.94811         2.01278
H         65.53724        52.86673         2.41878
O         66.14618        56.98645         2.44906
H         65.90773        56.18006         2.99349
O         49.85341        49.32595         2.70190
H         50.20163        50.05031         3.27576
O         68.73267        67.84793         1.84659
H         69.50309        68.42862         2.07143
O         66.93765        56.76765        -1.10104
H         67.77092        56.90779        -1.59720
O         47.59855        47.75517         2.30394
H         48.32208        48.23141         2.78387
O         70.55949        69.73718         1.31769
H         71.45669        70.13500         1.31063
O         43.39703        50.61962         2.34236
H         44.26649        50.73114         2.78694
H         37.53095        49.01225        -0.81294
H         35.47144        50.29255        -1.14492
H         37.50109        54.02566        -0.41957
H         35.49490        52.79622        -1.10644
H         39.20610        48.10634        -0.89547
H         39.15839        54.92617         0.23207
H         41.29055        46.91062        -0.72903
H         41.27138        56.05759         0.59848
H         44.97116        44.76102        -0.55891
H         42.85455        45.95274        -0.45928
H         45.00979        58.17451         0.41808
H         42.91294        56.98401         0.16114
H         46.64640        43.78537        -0.30710
H         46.60850        59.10131         0.77081
H         48.74371        42.64292        -0.66038
H         48.71161        60.29354         0.86497
H         52.41223        40.45734        -1.01435
H         50.34776        41.72483        -1.11547
H         52.39684        62.49776         1.19450
H         50.29670        61.27402         1.33008
H         54.10899        39.58184        -1.40702
H         54.13666        63.41695         1.34692
H         56.19026        38.32270        -1.36136
H         56.21665        64.61094         1.02224
H         59.84546        35.97455        -0.54347
H         57.78611        37.22312        -0.78943
H         59.84514        66.77796         0.53510
H         57.77637        65.55998         0.59403
H         61.54819        34.99261        -0.72388
H         61.51673        67.64396         0.73517
H         63.54671        33.77707        -1.35236
H         63.57247        68.91259         0.53547
H         66.84877        32.10441         0.97534
H         64.99366        33.10704        -0.19169
H         67.53140        70.99531        -0.90566
H         65.33444        69.87849        -0.87239
H         68.15479        31.32658         2.10344
H         69.08951        72.09172         0.22892
H         71.94684        31.76192         4.06768
H         69.87164        30.47745         3.61414
H         72.36282        33.92275         3.00530
H         72.73284        35.49004         1.92220
H         72.87497        37.84638         1.30937
H         73.08117        39.55154         0.49843
H         73.12984        41.97356         0.26876
H         73.01645        43.80000         0.85013
H         73.23626        46.18877         0.57339
H         72.89289        47.88674         1.57413
H         72.78762        50.25685         2.22424
H         73.07456        52.34130         1.31031
H         73.04286        54.55918         0.36545
H         72.98002        56.50594        -0.14799
H         73.06432        58.95047        -0.16510
H         73.11289        60.88013        -0.19545
H         73.12955        63.30746        -0.44545
H         72.98520        65.14327        -1.23268
H         72.91274        67.55972        -1.59170
H         73.05455        69.50101        -1.52898
H         73.16637        71.92130        -1.17915
H         71.10765        73.23886        -0.62054
