         762
 CSIRO Nanostructure Databank - Neutral Graphene Oxide Data Set
C         23.05604        24.62743        -2.08834
C         21.84732        25.34546        -2.27026
C         23.03963        27.47542        -2.12664
C         21.83676        26.71785        -2.30449
C         23.03741        28.88317        -2.23480
C         21.87496        29.66287        -2.58355
C         23.16094        31.78607        -2.76252
C         21.89980        31.01480        -2.75522
C         23.11577        33.27155        -2.52555
C         22.24230        34.12776        -3.34074
C         23.38311        36.16588        -2.57646
C         22.33024        35.48479        -3.29939
C         23.40271        37.63649        -2.44253
C         22.25047        38.46978        -2.80588
C         23.63782        40.54150        -2.58918
C         22.32974        39.81678        -2.86862
C         23.53508        42.00108        -2.17281
C         22.52921        42.79468        -2.71204
C         23.43891        44.82773        -1.71291
C         22.45650        44.17395        -2.46463
C         23.36689        46.25676        -1.43349
C         22.28257        47.03165        -1.89458
C         23.23615        49.02885        -0.92226
C         22.21784        48.39729        -1.63317
C         25.54289        23.11590        -1.70218
C         25.51828        24.52774        -1.76809
C         24.26497        25.28152        -1.91237
C         25.48757        27.40937        -1.74084
C         24.27950        26.73805        -1.89956
C         25.54296        28.87050        -1.65597
C         24.26228        29.63179        -1.92661
C         25.61255        31.77785        -1.86203
C         24.40576        31.05456        -2.36524
C         25.57560        33.17849        -1.62115
C         24.31632        33.94883        -1.86454
C         25.53488        36.07699        -1.34582
C         24.39949        35.41377        -2.01027
C         25.76783        37.53971        -1.65228
C         24.47786        38.26789        -1.87568
C         25.43653        40.38387        -0.71902
C         24.40673        39.72310        -1.57954
C         25.61002        41.84889        -0.79991
C         24.56846        42.61925        -1.38473
C         25.54349        44.70212        -0.45218
C         24.53247        44.05544        -1.19684
C         25.51282        46.10219        -0.21092
C         24.39986        46.89072        -0.68272
C         25.40768        48.96918         0.28889
C         24.34010        48.30076        -0.43811
C         25.46262        50.34512         0.47455
C         27.97741        23.08529        -1.49406
C         26.73134        22.41921        -1.53757
C         27.97618        24.49461        -1.60224
C         26.75935        25.20291        -1.69998
C         28.03836        27.42969        -1.49616
C         26.74895        26.67418        -1.54224
C         28.07421        28.90041        -1.62727
C         26.82011        29.59654        -2.06349
C         28.02011        31.72247        -1.36823
C         26.80295        31.06285        -1.71069
C         27.99420        33.12409        -1.11826
C         26.75646        33.82455        -1.22539
C         28.01631        35.95220        -0.64779
C         26.73568        35.26857        -0.92583
C         27.99464        37.43127        -0.49751
C         26.66933        38.12892        -0.57549
C         27.73280        40.26867         0.46868
C         26.54257        39.55018        -0.12728
C         27.79518        41.74140         0.39996
C         26.72129        42.45355        -0.12470
C         27.83923        44.61235         0.70590
C         26.61454        43.90080         0.16325
C         27.83530        46.07761         0.64927
C         26.61367        46.74444         0.42745
C         27.81716        48.87136         1.25230
C         26.51572        48.15689         0.80192
C         27.81726        50.34201         1.20494
C         26.62476        51.00601         0.93227
C         30.38964        20.21337        -0.94333
C         29.26607        20.94114        -1.20257
C         30.44071        23.09015        -1.12770
C         29.23779        22.38223        -1.25307
C         30.53579        24.50749        -1.38572
C         29.27668        25.20454        -1.72867
C         30.57076        27.43899        -1.52050
C         29.31180        26.70113        -1.76391
C         30.51748        28.82050        -1.39807
C         29.26427        29.56712        -1.44705
C         30.46408        31.72681        -1.05238
C         29.26673        31.01953        -1.30544
C         30.44527        33.13610        -0.80748
C         29.21361        33.81061        -0.78649
C         30.35390        35.84175         0.17610
C         29.17094        35.23297        -0.49050
C         30.30503        37.29958         0.58372
C         29.14710        38.12872         0.12813
C         30.29239        40.26846         0.82060
C         29.01818        39.51933         0.67820
C         30.30528        41.64446         0.90475
C         28.98636        42.39542         1.11964
C         30.30844        44.53758         0.76720
C         29.11494        43.87332         0.81420
C         30.30101        46.02162         0.38142
C         29.05971        46.76181         0.83053
C         30.32330        48.81663         1.34607
C         29.09398        48.13809         1.09972
C         30.24341        50.21099         1.83296
C         29.04132        51.01904         1.54752
C         30.32325        53.07640         1.92395
C         29.10812        52.39837         1.70827
C         32.96121        18.72149        -0.47553
C         32.93171        20.12881        -0.45962
C         31.62499        20.85647        -0.49732
C         32.95830        23.01119        -0.86117
C         31.63025        22.38091        -0.62626
C         33.00598        24.46749        -1.22644
C         31.73131        25.22356        -1.31606
C         33.00463        27.36425        -1.19856
C         31.80164        26.68162        -1.40126
C         33.10191        28.80806        -1.38509
C         31.75571        29.59926        -1.48823
C         32.94726        31.69304        -1.10448
C         31.73192        31.03357        -1.15365
C         33.04325        33.16531        -0.77688
C         31.72771        33.89040        -0.62249
C         32.79558        35.87044         0.55388
C         31.67471        35.20690         0.08291
C         32.73992        37.27935         0.93246
C         31.56881        38.00303         0.82362
C         32.82712        40.22745         1.11347
C         31.50647        39.46439         1.08805
C         32.80366        41.68832         0.90927
C         31.56234        42.38155         0.93782
C         32.81171        44.49467         0.90093
C         31.57684        43.80962         0.86523
C         32.86430        45.97645         0.86032
C         31.60167        46.77710         0.69949
C         32.80631        48.79461         1.61540
C         31.56973        48.15939         1.25388
C         32.83877        50.22465         1.88001
C         31.56574        50.95241         2.06319
C         32.80458        53.13310         1.99007
C         31.54796        52.42044         1.98427
C         32.82953        54.54560         2.00269
C         35.36672        18.71274        -0.06861
C         34.14821        18.03215        -0.27373
C         35.37614        20.13678        -0.12267
C         34.14498        20.82870        -0.29204
C         35.44592        23.03934        -0.15555
C         34.14053        22.31302        -0.25030
C         35.52276        24.47478        -0.59222
C         34.30415        25.21187        -1.03282
C         35.52450        27.45973        -0.48864
C         34.23531        26.68575        -0.74307
C         35.61172        28.95173        -0.70136
C         34.33973        29.57588        -1.10603
C         35.91193        32.01436        -0.62381
C         34.14377        30.93609        -1.34879
C         35.58090        33.13604         0.05657
C         34.20165        33.72826         0.05559
C         35.33681        35.82287         1.03634
C         34.07248        35.10166         0.70610
C         35.31875        37.26566         1.31329
C         33.99060        38.01185         1.29006
C         35.30402        40.10799         0.71747
C         34.04548        39.44531         1.00059
C         35.30041        41.64308         0.65428
C         34.03152        42.37890         0.86740
C         35.30565        44.49465         1.16158
C         34.04760        43.79200         0.97147
C         35.27598        45.87826         1.44842
C         34.07072        46.64808         1.38002
C         35.28158        48.72445         2.01519
C         34.02477        48.03223         1.63995
C         35.29034        50.23131         2.16350
C         34.02008        50.96302         1.99301
C         35.26521        53.14354         2.08937
C         34.03619        52.41342         2.03466
C         35.26024        54.55626         2.05291
C         34.02493        55.23702         2.02444
C         37.80930        15.91031         0.75636
C         36.62840        16.60763         0.41832
C         37.81477        18.74296         0.35347
C         36.59290        17.99613         0.24400
C         37.85845        20.10720         0.09897
C         36.64090        20.85057        -0.05959
C         37.94778        22.95924        -0.01510
C         36.70192        22.25732        -0.10658
C         37.95358        24.42281         0.17864
C         36.67913        25.25907        -0.06657
C         38.03071        27.38011        -0.17694
C         36.76951        26.67458        -0.41663
C         37.89102        28.77931         0.40747
C         36.80419        29.58735        -0.35163
C         38.11380        31.67428         0.44609
C         37.02010        31.07102        -0.35678
C         37.85155        32.94370         1.21137
C         36.56443        33.67898         1.03920
C         37.77455        35.88296         1.39451
C         36.55056        35.16364         1.18200
C         37.81222        37.29811         1.25712
C         36.58326        38.01893         1.14852
C         37.80378        40.13839         0.85630
C         36.58212        39.40638         0.95194
C         37.78858        41.59896         0.82166
C         36.58544        42.32814         0.86568
C         37.79425        44.42591         1.12041
C         36.56204        43.75307         1.08100
C         37.81917        45.85216         1.48188
C         36.53392        46.59194         1.73021
C         37.74540        48.79415         1.59354
C         36.56498        48.07032         1.70686
C         37.72767        50.25219         1.69726
C         36.56580        50.93899         1.95300
C         37.85535        53.16145         2.08606
C         36.55254        52.40577         2.18374
C         37.83131        54.65418         1.92806
C         36.51026        55.36290         1.94621
C         37.65942        57.39148         1.08742
C         36.49381        56.71143         1.33694
C         40.17065        14.69782         2.08846
C         40.21712        15.92082         1.43775
C         39.00607        16.57298         0.97930
C         40.34859        18.74616         0.84425
C         39.02240        18.04139         0.84719
C         40.41399        20.14339         0.34991
C         39.17400        20.78956        -0.21687
C         40.42537        22.97231         0.08853
C         39.17288        22.28149        -0.00557
C         40.41776        24.41192         0.10143
C         39.23784        25.11190         0.09452
C         40.27928        27.19592         1.10012
C         39.27199        26.59202         0.10829
C         40.40828        28.69356         0.90247
C         39.25570        29.43951         0.62284
C         40.39468        31.51476         1.28255
C         39.27206        30.85245         0.85580
C         40.37433        32.95237         1.67011
C         39.05495        33.67267         1.74183
C         40.34738        35.91808         1.69844
C         39.01633        35.17528         1.76959
C         40.31515        37.33448         1.25392
C         39.05296        38.02403         1.14017
C         40.29801        40.13464         0.51495
C         39.02506        39.42265         0.90572
C         40.28165        41.61910         0.80500
C         39.05167        42.30625         0.86735
C         40.27150        44.45190         0.94557
C         39.04252        43.74019         0.96183
C         40.28377        45.92824         0.84778
C         38.98267        46.66975         1.06826
C         40.22811        48.76774         1.23702
C         39.00780        48.11306         1.34181
C         40.25070        50.23705         1.10060
C         38.96071        51.00316         1.33211
C         40.20981        53.14430         1.28140
C         39.05484        52.45478         1.58266
C         40.25149        54.59296         1.26926
C         38.92306        55.26352         1.05680
C         40.17540        57.46905         1.14836
C         38.94146        56.76428         1.14908
C         40.20716        58.89383         1.17618
C         42.57507        14.63466         2.44632
C         41.34111        14.10081         2.65432
C         42.73183        15.80961         1.56503
C         41.49981        16.60916         1.29651
C         42.88714        18.68944         1.07145
C         41.58024        17.93193         0.94810
C         42.87921        20.04808         0.36960
C         41.60871        20.82459         0.32761
C         42.91544        22.96756         0.22193
C         41.65801        22.26149         0.13987
C         42.92973        24.38588         0.30310
C         41.68606        25.22240         0.09376
C         42.89005        27.21987         0.95649
C         41.63266        26.37490         1.13940
C         42.86291        28.61484         1.22150
C         41.64036        29.32354         1.29350
C         42.89539        31.58625         1.62811
C         41.61256        30.76824         1.58635
C         42.82496        32.97919         1.00818
C         41.60679        33.74460         1.47984
C         42.85561        35.83812         1.38540
C         41.60258        35.11790         1.51449
C         42.77375        37.31048         1.54507
C         41.52780        38.03068         1.17150
C         42.76371        40.17369         0.96250
C         41.56165        39.44072         0.97635
C         42.74731        41.58599         0.78495
C         41.51707        42.32408         0.80901
C         42.72082        44.53502         0.88462
C         41.50999        43.77187         0.87056
C         42.76074        45.94775         1.09687
C         41.51773        46.68702         1.09778
C         42.69114        48.87056         1.70781
C         41.48709        48.06896         1.21406
C         42.74473        50.29797         1.14865
C         41.52764        50.96419         1.06719
C         42.73637        53.19265         0.97458
C         41.44959        52.42456         0.89222
C         42.73271        54.59547         1.54103
C         41.43169        55.31566         1.25626
C         42.65786        57.47436         1.14073
C         41.42653        56.75292         1.17164
C         42.62792        58.87498         1.16696
C         41.40951        59.57437         1.19881
C         45.27991        15.93982         1.99347
C         44.08630        16.44761         1.30494
C         45.37945        18.68064         1.07726
C         44.13925        17.86219         0.69811
C         45.42005        20.03278         0.67824
C         44.19194        20.76665         0.24994
C         45.36478        22.96710         0.40248
C         44.16846        22.25772         0.28365
C         45.37196        24.39552         0.51577
C         44.12470        25.09983         0.51194
C         45.35575        27.24398         0.69311
C         44.10569        26.53426         0.72517
C         45.38746        28.65298         0.87934
C         44.16029        29.33105         1.36471
C         45.41506        31.63208         1.18846
C         44.18286        30.84201         1.53954
C         45.33565        33.09274         0.85788
C         44.12835        33.75467         1.04362
C         45.33318        35.96350         0.96366
C         44.06561        35.18714         1.15869
C         45.35160        37.32096         1.59611
C         44.04555        38.07446         1.60422
C         45.39811        40.13075         0.93127
C         44.05808        39.44020         1.01677
C         45.33642        41.59607         0.63481
C         43.99710        42.29233         0.50542
C         45.21448        44.56898         0.87390
C         43.97751        43.84447         0.61930
C         45.20737        45.95290         0.99877
C         43.97793        46.66656         1.12441
C         45.20715        48.88923         1.05056
C         44.05865        48.09580         1.65419
C         45.23060        50.27875         0.94819
C         43.98347        51.01685         1.04835
C         45.19163        53.18426         0.92839
C         44.01032        52.44182         1.04349
C         45.18756        54.62994         0.93082
C         43.97391        55.35012         1.12018
C         45.14581        57.43338         0.75943
C         43.93650        56.75227         1.02898
C         46.41031        16.69341         2.12201
C         47.80958        18.73718         1.74656
C         46.49458        18.04420         1.66536
C         47.94288        20.10628         1.11772
C         46.69789        20.74127         0.56219
C         47.87219        23.02552         0.71354
C         46.66733        22.26527         0.39529
C         47.85727        24.41719         0.64810
C         46.59547        25.11228         0.55037
C         47.80203        27.26355         0.35891
C         46.58503        26.53984         0.53288
C         47.76645        28.66833         0.31009
C         46.57937        29.36323         0.66189
C         47.75138        31.61010         0.20544
C         46.62664        30.83978         0.80577
C         47.77018        33.05732         0.56286
C         46.60185        33.78929         0.63318
C         47.98102        36.05785         0.64657
C         46.62955        35.29758         0.53904
C         47.91546        37.33216         1.48877
C         46.63266        38.07211         1.73384
C         47.88592        40.28856         1.57564
C         46.60956        39.53532         1.53140
C         47.85345        41.75570         1.28285
C         46.55987        42.39772         0.87556
C         47.62532        44.54884         0.38500
C         46.51405        43.87213         1.17028
C         47.65751        46.01830         0.68708
C         46.48499        46.67437         0.93377
C         47.72161        48.90044         0.58266
C         46.42606        48.14188         0.74298
C         47.70057        50.36224         0.70703
C         46.47467        51.01051         0.75840
C         47.70174        53.24335         0.71287
C         46.42852        52.48425         0.43144
C         47.69051        54.62603         0.68924
C         46.40971        55.34397         0.72715
C         46.34789        56.74756         0.64147
C         49.89918        19.17071         2.97331
C         48.79844        18.40304         2.78038
C         50.10252        20.44643         2.30583
C         49.08303        20.95730         1.51814
C         50.16466        23.21218         1.57056
C         49.19519        22.30502         0.84725
C         50.30615        24.56197         1.00800
C         49.09315        25.16400         0.61803
C         50.28817        27.21493         0.09099
C         49.07638        26.56909         0.30740
C         50.25803        28.59453        -0.41400
C         48.95458        29.36543        -0.22156
C         50.31184        31.52223         0.04383
C         48.98562        30.86886        -0.18030
C         50.34144        32.94257         0.51439
C         49.07294        33.68635         0.81731
C         50.39058        35.88154         0.63834
C         49.14670        35.16032         1.02612
C         49.97287        37.26025         0.20275
C         49.17467        38.07061         1.22425
C         50.18536        40.25861         0.37802
C         49.18676        39.57101         1.26463
C         50.09926        41.72358         0.13262
C         49.01426        42.45519         0.65687
C         50.07092        44.56350        -0.03410
C         48.94937        43.84300         0.47224
C         50.12096        45.98226         0.05123
C         48.97184        46.69504         0.63938
C         50.32428        48.90473         0.46857
C         49.01759        48.17671         0.77640
C         50.13768        50.39063         0.22100
C         48.96047        51.05034         0.56981
C         50.29258        53.27697         0.60871
C         48.96551        52.50824         0.79507
C         50.14167        54.71369         0.35747
C         48.94289        55.33834         0.51459
C         52.37746        20.70477         3.31932
C         51.31109        21.21839         2.60927
C         52.55018        23.50467         2.44866
C         51.31963        22.67095         2.32193
C         52.69991        24.73419         1.70912
C         51.55042        25.22984         1.01103
C         52.86115        27.17371        -0.02178
C         51.56310        26.37007         0.01308
C         52.86220        28.63704        -0.44212
C         51.55031        29.35486        -0.62664
C         52.81805        31.55560        -0.23028
C         51.54641        30.85261        -0.50484
C         52.74648        33.02219        -0.37405
C         51.50349        33.76310         0.03432
C         52.68211        36.08103        -0.27158
C         51.49781        35.24226         0.17745
C         52.22055        37.32535        -1.06484
C         51.07725        38.04037        -0.49961
C         52.26099        40.19944        -0.96812
C         51.09893        39.43202        -0.45254
C         52.07657        41.63127        -1.37581
C         51.07915        42.41493        -0.61965
C         52.08216        44.57140        -1.46879
C         51.09376        43.81619        -0.67973
C         52.22019        46.01162        -1.23027
C         51.21571        46.72596        -0.52350
C         52.23162        48.90582        -1.19799
C         51.19787        48.15224        -0.51487
C         52.37414        50.41934        -0.88578
C         51.32695        51.11630        -0.11419
C         52.69852        53.11138        -0.19948
C         51.45607        52.50492         0.08573
C         53.39078        21.57956         3.77958
C         55.44778        23.98225         3.08854
C         53.45459        22.91140         3.38193
C         55.20441        25.12247         2.21019
C         53.97624        25.49592         1.56632
C         55.27493        27.31720         0.41794
C         54.05231        26.64721         0.70936
C         55.38085        28.66370        -0.30132
C         54.07919        29.44342        -0.22027
C         55.28631        31.63615         0.00740
C         54.02993        30.84759        -0.17101
C         55.28690        33.12917        -0.16143
C         54.01221        33.80459        -0.56495
C         55.27660        36.02965        -0.72986
C         53.94165        35.30057        -0.72157
C         54.11581        37.41233        -2.72981
C         53.17376        38.01937        -1.85550
C         54.36593        40.22177        -2.46783
C         53.36041        39.47220        -1.66427
C         54.37922        41.59240        -2.54841
C         53.14918        42.33066        -2.17754
C         54.46106        44.53507        -2.46497
C         53.16803        43.83628        -2.22264
C         54.57769        45.88921        -2.21896
C         53.36001        46.68122        -1.86871
C         54.75151        48.83871        -1.66970
C         53.43859        48.18261        -1.73902
C         54.85048        50.20117        -1.39207
C         53.70715        51.01671        -0.99938
C         53.80805        52.36518        -0.62528
C         57.65483        23.30593         2.15011
C         56.52892        23.13984         3.04432
C         58.11185        24.56159         1.86240
C         56.37711        25.84068         1.90769
C         57.87030        27.29222         0.54312
C         56.48642        26.80436         0.90980
C         57.90932        28.75368         0.21879
C         56.54443        29.46772         0.36975
C         57.83270        31.60590        -0.46134
C         56.56305        30.87532        -0.20758
C         57.83232        33.10021        -0.55656
C         56.56750        33.87447        -0.45976
C         57.54080        35.76259        -1.78814
C         56.45849        35.21145        -1.11830
C         57.51328        36.96647        -2.59162
C         55.36093        38.06312        -3.01093
C         56.62925        40.16548        -3.45572
C         55.46593        39.45200        -2.99888
C         56.78527        41.52318        -3.33044
C         55.44937        42.29258        -3.38201
C         56.89119        44.53223        -3.28995
C         55.55103        43.80677        -3.14542
C         56.98930        45.88508        -2.69086
C         55.85446        46.57623        -2.32413
C         57.22307        48.70993        -2.16018
C         55.99712        47.96062        -1.68169
C         57.23449        50.13806        -1.99019
C         56.14859        50.82882        -1.54216
C         59.93289        24.01364         0.33920
C         59.00045        24.97581         0.77424
C         59.76852        26.44627        -0.96854
C         58.89129        26.24607         0.12217
C         59.95110        28.83928        -1.26757
C         59.02160        29.46199        -0.48624
C         60.32837        31.64225        -0.90889
C         59.18152        30.94145        -0.17333
C         60.31257        33.03473        -1.13757
C         58.98254        33.67198        -1.31303
C         60.09856        35.88446        -1.91118
C         58.86506        35.07020        -1.83479
C         59.94504        37.27522        -2.15589
C         58.68615        37.73461        -2.71207
C         59.58635        40.04944        -2.96026
C         58.64974        39.06434        -3.24868
C         59.41299        41.46273        -3.35940
C         58.11009        42.16150        -3.60812
C         59.43956        44.38731        -3.37914
C         58.14053        43.71784        -3.56764
C         59.48897        45.82229        -3.16781
C         58.35203        46.49586        -2.42871
C         59.55990        48.66725        -2.96018
C         58.34840        48.00787        -2.56174
C         60.77420        24.25200        -0.74299
C         60.68153        25.47099        -1.40510
C         61.15897        29.49758        -1.70140
C         61.37082        30.83116        -1.45038
C         61.43570        33.84319        -1.46914
C         61.33236        35.20461        -1.75163
C         60.96696        38.25865        -1.97146
C         60.76731        39.58900        -2.27538
C         60.56933        42.21823        -3.46763
C         60.59251        43.63296        -3.49658
C         60.59638        46.54625        -3.54178
C         60.64780        47.96569        -3.40690
O         36.78831        32.84748         2.21927
O         52.02972        44.34985        -2.96309
O         57.52343        33.83291         0.66529
O         43.52131        15.47684         0.36543
O         37.10436        24.90351         1.27777
O         24.09855        40.03047        -0.19097
O         26.05124        38.44562         0.68945
O         32.56106        34.01097        -1.85818
O         51.48148        30.21134        -1.81113
O         53.99519        34.40813        -1.88318
O         34.60057        37.60155         2.56822
O         45.74010        35.88346        -0.45023
O         50.08460        23.24540         3.02137
O         39.39610        50.67108        -0.03382
O         46.98390        48.46485        -0.60452
O         28.09769        39.71265         1.79664
O         34.57823        22.87757         1.02682
O         54.43954        23.67049         4.01432
O         56.38607        37.19403        -3.42056
O         46.46265        31.34038         2.17636
O         39.65199        35.72130         2.96617
O         49.82737        52.87558         1.93046
O         35.27230        40.84567        -0.57869
O         31.46131        21.74824         0.66619
O         48.68062        36.68752        -0.60568
O         49.32689        28.80678        -1.52365
O         29.01818        38.10640        -1.33636
O         43.53196        20.15620        -0.94471
O         44.37236        29.96428         2.67520
O         50.41140        40.05877         1.85611
O         37.43813        55.35324         3.11948
O         47.99782        41.31046         2.65423
O         50.58644        31.85632         1.45718
O         29.34492        25.94565        -3.01763
O         51.95254        41.76610        -2.82853
O         30.00112        36.26251         1.55344
O         33.82466        33.86598         1.46869
O         51.75045        33.42569        -1.38060
O         53.07311        47.57172        -3.03058
O         55.93701        44.48981        -4.38978
O         42.08252        53.01066        -0.31318
O         42.36841        49.14201         3.06006
O         48.37597        18.90566         0.38973
O         46.21890        41.99047        -0.47226
O         57.54401        25.59391         2.64598
O         58.76806        33.90501        -2.74835
O         49.11343        34.31815         2.17836
O         35.31699        24.79166        -2.00491
O         32.53045        29.24644        -2.67099
O         25.69280        35.68095         0.04135
O         42.20303        31.31661         2.84241
O         26.78123        44.13936         1.60161
O         44.81881        39.38349        -0.23896
O         48.95475        37.40726         2.50164
O         39.45225        46.37981        -0.28869
O         35.20182        31.72018        -1.78001
O         30.77713        50.40576         3.17828
O         58.36848        28.26252         1.54950
O         23.13028        33.54673        -1.09122
O         39.11051        27.23156        -1.19040
O         39.64678        33.12267         2.94405
O         34.60017        27.05566         0.62359
O         55.24671        32.53311         1.16431
O         49.15230        47.38077         1.99355
O         38.19638        31.70834        -1.03580
O         48.10175        31.43312        -1.20778
O         35.26702        49.35311         3.34478
O         37.35222        46.06853         2.85007
O         27.39740        27.03934        -0.22580
O         39.66257        27.15497         2.36722
O         24.78576        29.45536        -0.56304
O         55.39410        37.23154        -0.52108
O         57.09318        30.98251        -1.56195
O         51.77659        49.91890        -2.14939
O         33.13009        23.40907        -2.24917
O         43.93853        43.11809        -0.67723
O         45.96373        37.44573         2.91536
O         46.88649        21.35711        -0.76506
O         32.51668        46.61200        -0.44800
O         26.86212        48.34724         2.21494
O         24.12547        31.32343        -3.77951
O         53.48445        39.87965        -0.23787
O         59.74083        27.56542        -1.79795
O         58.08678        42.97746        -4.82302
O         39.54208        18.68626         2.09489
O         53.14496        27.55430        -1.42160
O         37.36489        52.72330         3.38357
O         32.10746        39.83593         2.36300
O         57.58468        39.36301        -4.07832
O         43.30151        37.86065         2.82676
O         39.29773        20.59220        -1.68491
H         40.13509        21.01765        -1.97075
O         46.29060        52.53765        -1.04339
H         45.48833        52.02626        -1.28584
O         59.48009        31.09788         1.23863
H         59.13861        30.31411         1.72212
O         58.60387        46.23384        -0.98693
H         59.48106        46.61961        -0.77303
O         55.73739        28.45549        -1.68001
H         54.94398        28.07645        -2.12530
O         41.81223        25.87886        -1.19573
H         41.76319        25.20071        -1.90081
O         54.99330        42.13254        -4.75028
H         55.43146        42.84216        -5.27799
O         51.13700        48.88963         1.68676
H         50.75642        48.18032         2.26424
O         30.15369        46.01672        -1.07406
H         31.06916        46.07457        -1.44295
O         38.50000        54.91695        -0.31124
H         39.25141        55.09707        -0.91559
O         56.22281        29.59210         1.76025
H         56.89264        29.07159         2.26889
O         56.23982        47.66110        -0.25905
H         57.08327        47.14122        -0.22438
O         53.19718        36.68385         0.95148
H         52.52987        37.29252         1.33453
O         28.73503        42.30072         2.54613
H         28.47534        41.36635         2.73507
O         51.45141        25.69328        -1.27493
H         51.76153        26.33205        -1.95922
O         24.43626        40.51092        -3.81662
H         23.94935        41.01023        -4.50577
O         44.20272        17.64323        -0.71470
H         44.19935        18.51943        -1.17188
O         26.82136        29.48808        -3.52762
H         27.60136        29.97033        -3.87506
O         43.02580        18.98224         2.49443
H         42.15234        19.26842         2.83954
O         42.59719        32.69711        -0.41869
H         42.70243        33.53269        -0.92254
O         47.24611        44.44579        -1.01587
H         47.96039        44.82800        -1.56764
O         26.49991        37.57338        -2.91259
H         26.31453        38.42193        -3.36828
O         37.41064        28.59964         1.76121
H         38.11419        28.05141         2.23202
O         42.82394        54.42358         2.98781
H         42.82350        55.31147         3.40300
O         49.71637        22.08737        -0.49126
H         49.00942        21.63067        -1.00440
O         53.86669        36.24605        -3.32020
H         54.65679        35.94985        -3.82230
O         41.73155        25.80056         2.44081
H         40.95502        26.19658         2.94239
O         46.75053        44.00418         2.58681
H         46.82270        44.95611         2.81358
O         44.47965        47.88580         3.02899
H         43.76085        48.35523         3.56161
O         40.33332        40.02060        -0.96113
H         41.13366        40.49599        -1.27387
H         23.00883        23.53061        -2.09890
H         20.91022        24.78631        -2.39807
H         20.88281        27.23952        -2.45661
H         20.90428        29.15317        -2.66250
H         20.95975        31.55968        -2.92566
H         21.52353        33.64186        -4.01677
H         21.63229        36.08470        -3.90061
H         21.29788        37.97459        -3.04443
H         21.44131        40.39200        -3.16898
H         21.75340        42.34231        -3.34590
H         21.61178        44.72944        -2.89127
H         21.46861        46.56737        -2.46591
H         23.16085        50.10813        -0.73692
H         21.36151        48.98232        -1.99543
H         24.60713        22.54287        -1.74011
H         24.61499        50.97598         0.17442
H         26.68421        21.32639        -1.44396
H         26.59295        52.10322         0.97605
H         30.36908        19.12519        -1.09643
H         28.35756        20.39396        -1.48856
H         30.28242        54.17264         1.95891
H         28.20002        53.00549         1.59652
H         32.03133        18.15153        -0.60290
H         31.89383        55.11797         1.99892
H         34.11891        16.93485        -0.25942
H         34.00292        56.33433         2.03783
H         37.75942        14.81661         0.85223
H         35.71146        16.01641         0.29428
H         37.59201        58.45291         0.80496
H         35.53586        57.22935         1.18988
H         39.20484        14.19689         2.24124
H         39.26665        59.46009         1.18728
H         43.46976        14.12593         2.83000
H         41.22814        13.18662         3.25359
H         43.56147        59.45218         1.17043
H         41.41845        60.67250         1.22909
H         45.28569        14.89394         2.32961
H         45.15553        58.52544         0.64822
H         47.29724        16.24049         2.58640
H         47.25941        57.33305         0.46510
H         50.61989        18.86601         3.74433
H         48.63157        17.52483         3.41995
H         51.01743        55.29559         0.03472
H         48.90877        56.42559         0.36139
H         52.42889        19.64381         3.59643
H         52.83431        54.18368        -0.00120
H         54.15183        21.20665         4.47706
H         54.77007        52.88956        -0.70080
H         58.11429        22.41126         1.70624
H         56.47912        22.22392         3.65299
H         58.16075        50.69485        -2.18562
H         56.24463        51.91080        -1.38573
H         59.99490        23.05655         0.87430
H         59.60585        49.76396        -2.95169
H         61.49216        23.48882        -1.07068
H         61.31234        25.69130        -2.27557
H         61.90334        28.90975        -2.25446
H         62.27883        31.31489        -1.83919
H         62.44211        33.40503        -1.40214
H         62.26210        35.77750        -1.88353
H         61.91377        37.95478        -1.50370
H         61.55535        40.30812        -2.01290
H         61.54292        41.71228        -3.41512
H         61.57458        44.12322        -3.45076
H         61.44261        46.04390        -4.03026
H         61.55228        48.49793        -3.73022
