         598
 CSIRO Nanostructure Databank - Neutral Graphene Oxide Data Set
C         22.99298        70.05989         1.14136
C         22.98850        71.47418         1.16515
C         21.77441        72.21350         1.18218
C         22.99778        74.30954         1.18741
C         21.79288        73.60810         1.19555
C         25.37563        65.76266         1.02098
C         25.40717        67.16513         1.14127
C         24.20578        67.91488         1.08856
C         25.45510        70.03805         1.15371
C         24.20207        69.32800         1.13568
C         25.46421        71.46509         1.14825
C         24.23289        72.18379         1.16191
C         25.47271        74.30682         1.14487
C         24.23950        73.61645         1.16726
C         27.81940        61.37581         0.71990
C         27.76642        62.80426         0.83445
C         26.58182        63.49932         0.98503
C         27.90221        65.73002         1.35199
C         26.54070        64.94451         1.27821
C         27.89180        67.18641         1.17278
C         26.67073        67.88317         1.20184
C         27.91928        70.01956         1.08311
C         26.67920        69.31593         1.15114
C         27.93331        71.45360         1.07561
C         26.70074        72.17056         1.12255
C         27.93630        74.29802         1.06170
C         26.70472        73.61143         1.11197
C         30.24303        57.04047         0.53715
C         30.19698        58.45136         0.55669
C         29.00911        59.20232         0.58363
C         30.28371        61.32170         0.50648
C         29.00865        60.63164         0.60291
C         30.29194        62.79671         0.44473
C         29.03197        63.56802         0.66546
C         30.31829        65.70225         0.89182
C         29.13011        65.00588         1.01123
C         30.36083        67.14699         0.91747
C         29.13130        67.87221         1.00605
C         30.38230        69.99758         0.84783
C         29.14583        69.30076         0.98137
C         30.39800        71.43235         0.87764
C         29.16718        72.15148         1.00579
C         30.38458        74.29633         0.96338
C         29.17728        73.60280         1.00883
C         32.69553        52.74816         0.46412
C         32.65694        54.13271         0.35363
C         31.45142        54.88777         0.43090
C         32.69236        56.98293         0.05661
C         31.44780        56.29480         0.38974
C         32.74436        58.45089         0.21155
C         31.48429        59.18321         0.58753
C         32.76006        61.33612         0.28769
C         31.48421        60.64788         0.44668
C         32.80270        62.71168         0.38953
C         31.59022        63.46706         0.75188
C         32.84596        65.71239         0.66166
C         31.60470        64.96610         0.88989
C         32.84140        67.11194         0.63890
C         31.59067        67.83885         0.76833
C         32.81911        69.97647         0.46277
C         31.60432        69.27079         0.70607
C         32.81839        71.41273         0.45122
C         31.62531        72.12403         0.74146
C         32.74005        74.30257         0.05784
C         31.71515        73.61253         0.98736
C         35.22579        48.37842         0.67950
C         35.12529        49.83807         0.72675
C         33.90149        50.57947         0.45155
C         35.14513        52.66773         0.10884
C         33.92443        51.99256         0.39495
C         35.22172        54.12291         0.03201
C         33.92847        54.88084         0.20426
C         35.03040        56.96044        -0.80740
C         33.85166        56.29572        -0.19636
C         35.03544        58.47915        -0.87025
C         33.91217        59.21882        -0.25124
C         35.24866        61.27960        -0.20136
C         33.96202        60.58618        -0.08059
C         35.32447        62.69530         0.26154
C         34.04663        63.46604         0.17774
C         35.38292        65.63528         0.53482
C         34.06956        64.95529         0.33400
C         35.36166        67.14658         0.47413
C         34.05853        67.84282         0.43101
C         35.26820        69.92384        -0.02134
C         34.04802        69.24251         0.29463
C         35.20457        71.36950        -0.26287
C         34.01170        72.13011         0.12262
C         35.25329        74.24430        -0.09111
C         34.05353        73.55080         0.03333
C         37.82047        44.15933         0.46351
C         37.78569        45.53736         0.63494
C         36.44921        46.22179         0.84917
C         37.68532        48.47022         0.64981
C         36.43780        47.73770         0.71282
C         37.72146        49.83489         0.38962
C         36.46879        50.59018         0.49446
C         37.67516        52.64546        -0.50527
C         36.36058        51.91268        -0.15369
C         37.64095        54.12650        -0.63128
C         36.43091        54.78432        -0.53075
C         37.63104        56.94262        -1.21746
C         36.32154        56.18866        -0.98401
C         37.61260        58.44544        -1.23722
C         36.32912        59.22379        -1.07246
C         37.74816        61.23160        -0.30355
C         36.38609        60.63089        -0.58970
C         37.81042        62.74763        -0.31546
C         36.61727        63.45091         0.20031
C         37.78097        65.63887        -0.08297
C         36.62454        64.93493         0.15549
C         37.77072        67.08738        -0.19921
C         36.57864        67.81675        -0.00746
C         37.69908        69.95637        -0.48822
C         36.49277        69.23851        -0.20963
C         37.76766        71.35401        -0.37660
C         36.51922        72.13163        -0.40503
C         37.72537        74.19547         0.17482
C         36.53067        73.57652        -0.09351
C         40.38556        39.93368         0.14993
C         40.31749        41.33842         0.34014
C         39.09382        42.03987         0.27597
C         40.27987        44.17544         0.55232
C         39.05340        43.44406         0.43119
C         40.23560        45.58892         0.61295
C         39.00519        46.26624         0.69177
C         40.21323        48.54328         0.76366
C         38.94870        47.74022         0.86606
C         40.19798        49.94861         0.33271
C         38.95008        50.59727         0.15175
C         40.18361        52.65235        -0.68083
C         38.92240        51.96749        -0.19507
C         40.14840        54.16338        -0.60740
C         38.91004        54.84653        -0.75983
C         40.12905        56.99781        -0.88363
C         38.90805        56.25752        -0.91048
C         40.11686        58.41581        -1.03086
C         38.90636        59.14647        -1.05227
C         40.07310        61.30519        -1.41929
C         38.88835        60.54398        -1.00325
C         40.12274        62.77958        -1.15806
C         38.95085        63.44638        -0.54088
C         40.25532        65.63583        -0.76583
C         39.10502        64.89528        -0.10239
C         40.20034        67.08249        -0.80868
C         38.98178        67.75703        -0.60125
C         40.21985        69.99817        -0.94623
C         38.91050        69.20772        -0.83342
C         40.22965        71.41714        -0.52196
C         39.00174        72.04388        -0.24767
C         40.26689        74.11546         0.35245
C         38.96828        73.38344         0.44056
C         42.95458        35.75677        -0.45670
C         42.90221        37.14253        -0.12929
C         41.67723        37.84324        -0.13653
C         42.82832        39.90879         0.50783
C         41.61873        39.22517         0.16320
C         42.73908        41.30759         0.93760
C         41.52351        42.07362         0.62297
C         42.79663        44.19201         0.77015
C         41.53054        43.47036         0.66123
C         42.81371        45.64171         0.69425
C         41.51399        46.33181         0.48784
C         42.70128        48.58813         0.86431
C         41.48342        47.81240         0.50390
C         42.69384        50.00940         0.48581
C         41.44810        50.64865         0.17683
C         42.65438        52.75915        -0.14714
C         41.44547        52.02286        -0.15475
C         42.62853        54.17689        -0.39336
C         41.37617        54.87903        -0.56885
C         42.62339        57.02413        -0.73005
C         41.37714        56.30695        -0.69548
C         42.65820        58.46125        -1.02668
C         41.37558        59.24013        -0.88395
C         42.59199        61.27217        -1.88010
C         41.28016        60.46093        -1.81332
C         42.65169        62.73307        -1.51637
C         41.43873        63.48117        -1.08290
C         42.66824        65.65322        -1.37507
C         41.41039        64.96637        -1.11536
C         42.67058        67.11395        -1.22845
C         41.43470        67.80907        -1.00191
C         42.67538        69.94839        -0.92104
C         41.46709        69.22218        -0.89795
C         42.65515        71.38782        -0.82080
C         41.46870        72.12243        -0.47303
C         42.68192        74.22255         0.39858
C         41.47129        73.51060         0.02633
C         45.52878        33.15911        -1.34784
C         44.33979        33.69349        -0.84576
C         45.30510        35.78037         0.05594
C         44.17111        35.05020        -0.40020
C         45.36883        37.18964         0.11282
C         44.11782        37.87299         0.12739
C         45.32661        39.96144         0.67440
C         44.08110        39.26003         0.44960
C         45.32934        41.34923         0.99905
C         44.03653        42.06013         1.19929
C         45.28091        44.20383         0.88469
C         43.98730        43.51085         0.96352
C         45.29224        45.70761         0.80752
C         43.98310        46.37066         0.80124
C         45.24408        48.60477         0.83277
C         43.99169        47.84178         0.99815
C         45.18462        49.99269         0.61335
C         43.91739        50.69303         0.41121
C         45.11768        52.82825         0.08953
C         43.89457        52.08941         0.10529
C         45.08275        54.21921        -0.11746
C         43.85172        54.89962        -0.38454
C         45.10072        57.04908        -0.76939
C         43.82671        56.31704        -0.61856
C         45.08753        58.55719        -0.62754
C         43.83431        59.14547        -1.20933
C         45.15509        61.34479        -1.54766
C         43.88901        60.55659        -1.66127
C         45.15846        62.73756        -1.79511
C         43.85107        63.49106        -2.06457
C         45.12833        65.66518        -1.68511
C         43.83185        64.94737        -1.63183
C         45.05707        67.15026        -1.91008
C         43.84665        67.85078        -1.41873
C         45.11761        69.99699        -1.36410
C         43.89885        69.27240        -1.25222
C         45.14605        71.39625        -1.10911
C         43.87822        72.03717        -1.09160
C         45.22968        74.15812         0.26531
C         43.91776        73.98003        -0.19876
C         46.77994        33.79908        -1.46177
C         47.96817        36.00766        -0.95545
C         47.10501        34.94738        -0.69927
C         47.86195        37.30226        -0.31544
C         46.62154        37.89675         0.14618
C         47.78564        40.05826         0.51761
C         46.58007        39.29896         0.45478
C         47.78603        41.43388         0.91897
C         46.52352        42.06481         1.14885
C         47.71079        44.29414         1.64003
C         46.40202        43.50391         1.61887
C         47.68999        45.77400         1.44560
C         46.52397        46.46435         1.17565
C         47.68455        48.65246         1.00264
C         46.49266        47.91316         1.01409
C         47.67222        50.04497         0.68052
C         46.41015        50.74346         0.50786
C         47.61095        52.87358         0.10417
C         46.37465        52.13268         0.28080
C         47.60590        54.23884        -0.02136
C         46.32530        55.00250         0.23197
C         47.53119        57.27293         0.04178
C         46.36588        56.38030        -0.38700
C         47.54488        58.60121        -0.68951
C         46.38347        59.23559        -1.01895
C         47.60841        61.33016        -1.61611
C         46.38071        60.65282        -1.39119
C         47.61147        62.69573        -1.97293
C         46.38385        63.40914        -1.99023
C         47.60118        65.64210        -2.47084
C         46.38525        64.90499        -1.98756
C         47.61204        67.14177        -2.33745
C         46.31498        67.91647        -2.17612
C         47.60174        70.06024        -1.44240
C         46.35383        69.44766        -2.03967
C         47.61058        71.36668        -0.94316
C         46.36982        72.12008        -0.85122
C         47.61201        73.95197         0.22952
C         46.37547        73.41711        -0.19284
C         49.01450        38.10288        -0.33293
C         50.21038        40.19169         0.14824
C         49.02314        39.44145         0.13510
C         50.24047        41.53942         0.60088
C         49.01242        42.14648         1.04010
C         50.30842        44.33291         1.47344
C         49.01701        43.55327         1.50566
C         50.27260        45.80304         1.38379
C         48.97788        46.49707         1.59287
C         50.22919        48.66528         0.94406
C         48.96902        48.00492         1.32728
C         50.15911        50.03721         0.60419
C         48.89800        50.71288         0.50426
C         50.18020        52.84954        -0.08191
C         48.87625        52.10105         0.00782
C         50.16814        54.34135        -0.19876
C         48.83275        55.02120        -0.32449
C         50.09812        57.27590        -0.08209
C         48.82503        56.51688        -0.26382
C         50.09240        58.60243        -0.35893
C         48.79649        59.40427        -0.44815
C         50.20766        61.27318        -1.51893
C         48.88315        60.57990        -1.39632
C         50.22510        62.68490        -2.03636
C         48.89494        63.37091        -2.33653
C         50.19774        65.60548        -2.28902
C         48.90739        64.86901        -2.49652
C         50.12967        66.97777        -1.67609
C         48.82513        67.76656        -1.70492
C         50.11495        69.91126        -1.09683
C         48.80583        69.21636        -1.30180
C         50.08359        71.25421        -0.47429
C         48.86129        71.94466        -0.44226
C         50.04395        73.87743         0.53922
C         48.84658        73.27422         0.10389
C         51.45815        42.24718         0.54069
C         52.75006        44.44552         0.74899
C         51.59622        43.60750         1.03863
C         52.71706        45.80984         1.00642
C         51.45224        46.51718         1.19915
C         52.70277        48.65662         0.81108
C         51.46916        47.96246         1.00851
C         52.62821        50.06630         0.55930
C         51.38983        50.76265         0.48859
C         52.56436        52.90504         0.73937
C         51.40824        52.18338         0.39109
C         52.50185        54.37793         0.89642
C         51.35198        55.11133         0.27545
C         52.60720        57.24854         0.43576
C         51.25195        56.58571         0.63829
C         52.59836        58.71483         0.25583
C         51.32769        59.41077        -0.17504
C         52.60906        61.40482        -0.91681
C         51.42095        60.73952        -0.83472
C         52.66325        62.89650        -1.12445
C         51.44017        63.50435        -1.78821
C         52.70685        65.62636        -1.98784
C         51.43205        64.85238        -1.94799
C         52.71971        67.02053        -1.52658
C         51.39906        67.64360        -1.24277
C         52.54254        69.67683        -0.30351
C         51.38324        69.13203        -1.06876
C         52.53519        71.11276         0.06232
C         51.29524        71.83591         0.01093
C         52.48306        73.79438         0.93352
C         51.27479        73.18727         0.49844
C         53.92794        46.56175         1.07809
C         55.22309        48.57427         1.45721
C         53.96890        47.95598         1.06521
C         55.63274        49.84490         1.05237
C         53.78481        50.87766         0.41665
C         55.09123        52.87562         1.19907
C         53.81243        52.22262         0.79218
C         55.06885        54.41153         1.25162
C         53.77889        55.15782         1.05114
C         55.08693        57.21168         0.32084
C         53.79422        56.57414         0.59033
C         55.12321        58.53459        -0.09845
C         53.91698        59.38898         0.02976
C         55.13486        61.32895        -1.16590
C         53.89796        60.77764        -0.52214
C         55.16552        62.78709        -1.42198
C         53.99259        63.44137        -1.63081
C         55.24435        65.64233        -1.64527
C         54.01805        64.88448        -1.96222
C         55.18084        66.97354        -1.33312
C         53.89568        67.64340        -1.18094
C         55.09776        69.59379         0.00464
C         53.82960        68.90121        -0.38672
C         55.01018        71.00041         0.52874
C         53.71125        71.72035         0.50701
C         54.92394        73.72625         1.31926
C         53.70082        73.10084         0.91122
C         56.56216        50.78223         1.54318
C         57.54245        53.01512         1.49092
C         56.43566        52.19225         1.28335
C         57.54739        54.44216         1.30076
C         56.32528        55.13138         1.03376
C         57.56899        57.14212         0.47762
C         56.32830        56.47256         0.56250
C         57.66637        58.43004        -0.21004
C         56.36860        59.13949        -0.59528
C         57.70381        61.34403        -0.99778
C         56.41962        60.58229        -1.04803
C         57.73660        62.70135        -1.25552
C         56.49298        63.41718        -1.66353
C         57.78768        65.65618        -1.42784
C         56.53454        64.93167        -1.75784
C         57.73714        67.01787        -1.20630
C         56.44281        67.75318        -1.21741
C         57.62660        69.84039        -0.21216
C         56.38094        69.13234        -0.61416
C         57.48537        71.20931         0.27988
C         56.26604        71.78687         0.59127
C         57.36678        73.77444         1.60601
C         56.17494        73.12281         1.16047
C         58.74927        55.17685         1.33893
C         59.96328        57.31929         0.98959
C         58.77581        56.54394         0.96239
C         60.01813        58.65632         0.49170
C         58.87640        59.23154        -0.11594
C         60.17858        61.31738        -0.57928
C         58.97388        60.49951        -0.92669
C         60.23465        62.68409        -1.11539
C         58.98100        63.48366        -1.27430
C         60.33276        65.66175        -1.61521
C         59.02263        64.87179        -1.37590
C         60.28984        67.07420        -0.93967
C         58.94470        67.76297        -0.75614
C         60.09194        70.01307        -0.30455
C         58.84033        69.23060        -0.44915
C         60.04503        71.39636         0.27550
C         58.69829        72.03050         0.49206
C         59.84000        73.81125         1.78931
C         58.61981        73.22391         1.35918
C         61.22805        59.40395         0.53993
C         62.53304        61.46542         0.18710
C         61.30346        60.73027         0.03329
C         62.68405        62.76738        -0.26881
C         61.53278        63.40912        -0.95662
C         62.83017        65.36154        -1.24718
C         61.56245        64.87193        -1.15167
C         62.80805        67.53701        -1.03570
C         61.51125        67.92384        -0.77713
C         62.56904        69.94046         0.38133
C         61.41488        69.32537        -0.31580
C         62.41742        71.16315         1.05890
C         61.21064        71.91975         1.01460
C         62.30910        73.95712         2.09701
C         61.08526        73.18997         1.63854
C         63.88726        63.50583        -0.08470
C         65.07382        65.68855        -0.22203
C         63.99019        64.83301        -0.54785
C         65.07782        67.11878        -0.06062
C         63.93066        67.98664        -0.26837
C         64.94054        69.74501         1.11866
C         63.80540        69.21171         0.43476
C         64.85066        70.99310         1.77941
C         63.53743        71.64566         1.89526
C         64.77887        73.70750         2.72244
C         63.49771        73.08307         2.43638
C         66.19838        67.69515         0.57609
C         67.30594        69.58900         1.73180
C         66.17490        69.00874         1.11898
C         67.24968        70.88426         2.29517
C         65.99817        71.59211         2.33407
C         67.17800        73.56006         3.24460
C         65.96077        72.96018         2.80276
C         68.41399        71.51770         2.80568
C         68.36552        72.83502         3.26806
O         59.48235        72.32372        -0.71947
O         46.38841        35.06182         0.52784
O         46.06153        65.33537        -0.59125
O         49.71526        65.35354        -3.62242
O         55.14723        69.82661         1.43603
O         39.43836        69.66627        -2.13369
O         34.62660        57.68160        -2.02209
O         27.22774        65.26879         2.54897
O         35.89067        50.49718         1.81371
O         49.67863        62.74188        -3.38821
O         60.91961        70.07557        -1.52685
O         29.58619        63.35205        -0.71121
O         36.85165        51.95428        -1.53025
O         43.22229        48.27946         2.19471
O         51.18586        54.83187        -1.13946
O         55.67172        60.62926        -2.33402
O         34.00039        64.33563        -1.02181
O         39.64289        48.23645         2.08018
O         36.90944        59.02080        -2.39449
O         47.59726        66.51503        -3.64262
O         50.60978        66.87887        -0.28660
O         43.23782        41.55709         2.30939
O         48.49181        68.14648        -0.32437
O         51.01872        69.86066        -2.27613
O         48.73694        55.82966        -1.55157
O         35.51885        66.40368         1.76025
O         51.76777        59.41719         1.23889
O         61.18195        62.78093        -2.26202
O         49.72721        60.32411        -2.54719
O         52.92859        68.76411         0.76743
O         54.11854        60.56055         0.92026
O         54.98182        53.61096         2.46658
O         57.07539        58.32324        -1.58285
O         56.35058        68.96294        -2.06952
O         47.39939        57.67148         1.38875
O         53.42315        65.31919        -3.23329
O         36.89559        56.34172        -2.31868
O         36.10106        62.90005         1.49422
O         39.78329        62.28728        -2.50506
O         49.59936        52.21821        -1.27305
O         34.85150        54.74130         1.35362
O         41.53845        47.14161        -0.78934
O         42.38219        62.92610        -0.09360
O         63.15720        71.94519         3.28513
O         63.05537        66.53392        -1.96162
O         31.67961        64.05980         2.09210
O         35.72147        71.79288        -1.58271
O         43.35233        60.85311        -3.04015
O         51.20556        43.79442         2.47168
O         49.00869        47.45273         2.69626
O         56.62263        64.08885        -2.95396
O         45.39975        67.56732        -3.27304
O         46.00199        56.46906        -1.77905
O         45.56778        44.84517        -0.38496
O         43.83413        73.36009        -1.47421
O         48.43235        43.83895         2.84113
O         32.41645        58.75109         1.63659
O         54.94266        50.31540        -0.08717
O         59.61337        67.03361         0.36382
O         52.87344        54.92402         2.18616
O         46.31721        69.97035        -3.40525
H         45.75710        69.35152        -3.93069
O         41.38615        59.75570         0.48068
H         42.10894        59.32686         0.98750
O         32.27070        73.78632         2.33606
H         31.64506        73.37941         2.97189
O         46.24631        55.22059         1.67349
H         46.28249        54.35025         2.12224
O         40.19213        52.37332        -2.13743
H         40.15406        51.40022        -2.25630
O         48.63337        59.94045         0.88955
H         48.22231        59.19067         1.42236
O         37.96237        60.88663         1.11879
H         37.33898        61.45265         1.64188
O         52.60556        63.42646         0.25329
H         52.97544        62.75273         0.86608
O         45.92099        43.45777         2.98699
H         46.70615        43.29036         3.55872
O         43.70661        63.52698        -3.51180
H         43.72733        62.58948        -3.82487
O         62.72324        74.84124         1.04390
H         61.92513        75.21800         0.61941
O         60.41304        65.89500        -3.03091
H         60.54127        65.03066        -3.47710
O         38.85490        73.03049         1.89216
H         39.72168        72.66430         2.17201
O         35.45095        45.64213        -0.00050
H         35.71630        45.78650        -0.93167
O         32.23241        74.38086        -1.27842
H         32.36927        73.51682        -1.71843
O         41.00142        59.93684        -3.11729
H         40.76578        60.68741        -3.70389
O         44.96591        58.79415         0.81624
H         45.81167        58.43677         1.23701
O         39.51555        64.82460         1.30325
H         38.77919        64.43157         1.81925
O         50.90174        56.67568         2.03760
H         50.93623        57.62674         2.28799
O         59.16603        60.04670        -2.31694
H         58.41381        59.43741        -2.51970
H         22.99702        75.40879         1.19408
H         25.47579        75.40690         1.14101
H         27.94123        75.39796         1.05527
H         30.37363        75.39627         0.99416
H         32.89360        75.34971         0.41867
H         35.23745        75.34448        -0.07030
H         37.74988        75.27096         0.40773
H         40.29089        75.13146         0.77584
H         42.61636        74.92027         1.24608
H         45.40123        74.87005         1.08653
H         47.61303        74.93823         0.71817
H         50.01472        74.90582         0.92872
H         52.46035        74.83704         1.28305
H         54.87482        74.74428         1.73325
H         57.28011        74.71880         2.16349
H         59.79434        74.77696         2.31680
H         62.03491        74.57232         3.00577
H         64.82038        74.80151         2.82987
H         67.16195        74.60271         3.59257
H         22.03559        69.51786         1.12843
H         20.81696        71.67346         1.18495
H         20.84371        74.16203         1.20999
H         24.44601        65.27447         0.69214
H         23.24558        67.38001         1.03938
H         26.86864        60.82633         0.79648
H         25.62520        62.95522         0.95485
H         29.29868        56.48224         0.62892
H         28.04347        58.67455         0.60213
H         31.75760        52.19541         0.62151
H         30.50363        54.35237         0.59122
H         34.30268        47.78280         0.61338
H         32.94291        50.04357         0.39682
H         36.87456        43.60237         0.39408
H         36.13007        45.98705         1.90284
H         39.45944        39.38079        -0.06577
H         38.15752        41.48387         0.12123
H         42.03069        35.24052        -0.75491
H         40.74948        37.30444        -0.37966
H         45.43592        32.18640        -1.85737
H         43.42255        33.10635        -1.00493
H         47.49034        33.43535        -2.21784
H         48.75876        35.88712        -1.71133
H         49.95559        37.67215        -0.70633
H         51.14716        39.72288        -0.18768
H         52.32745        41.76940         0.06659
H         53.68534        43.97377         0.41367
H         54.87167        46.00436         1.17271
H         55.86193        47.99501         2.14160
H         57.39796        50.45185         2.17889
H         58.51241        52.53624         1.69458
H         59.68660        54.67433         1.61717
H         60.88593        56.86588         1.37996
H         62.12058        58.95299         0.99610
H         63.38022        60.96239         0.67603
H         64.71416        63.05055         0.48002
H         65.95659        65.18605         0.20891
H         67.10409        67.08625         0.71645
H         68.26003        69.04142         1.73607
H         69.36759        70.97060         2.80247
H         69.28391        73.31204         3.63808
