         264
 CSIRO Nanostructure Databank - Neutral Graphene Oxide Data Set
C        -10.89420         0.56670        -1.47646
C         -9.94476         1.39242        -0.70674
C         -8.88723         0.72445         0.13990
C         -7.57828         1.46286         0.35598
C         -6.39857         0.71488         0.91239
C         -5.04655         1.36572         0.84059
C         -3.88843         0.72963         1.19365
C         -2.59776         1.46769         1.40825
C         -1.29233         0.71463         1.21660
C          0.00016         1.45377         1.04852
C          1.19440         0.83218         0.38996
C          2.47566         1.63957         0.36571
C          3.72266         0.85961         0.04524
C          5.04356         1.61397        -0.10245
C          6.21456         0.81544         0.55374
C          7.51895         1.54542         0.21453
C          8.79079         0.77530         0.02926
C         10.14238         1.49597        -0.00730
C         10.99652         0.76380        -1.02945
C         -9.75547         2.79379        -1.11989
C         -8.57243         3.46603        -0.90616
C         -7.32486         2.62144        -0.63543
C         -6.05310         3.48894        -0.33061
C         -5.09435         2.85407         0.69215
C         -3.84661         3.66350         0.92061
C         -2.55947         2.96633         1.24977
C         -1.28811         3.53057         0.61280
C         -0.01668         2.95214         1.21890
C          1.26500         3.71453         1.32378
C          2.53566         3.04798         0.86924
C          3.87016         3.72485         1.09444
C          5.06522         3.02470         0.50618
C          6.28719         3.81905         0.04585
C          7.57285         3.05020         0.48212
C          8.82257         3.68377        -0.09771
C          9.96709         2.95659        -0.34803
C         -8.52184         4.86688        -1.13397
C         -7.41701         5.66469        -0.78112
C         -6.29625         4.98637        -0.07588
C         -5.07007         5.80626         0.22735
C         -3.77964         5.02939         0.28166
C         -2.48977         5.76743         0.12843
C         -1.20357         5.04118         0.39660
C          0.05145         5.82883         0.60487
C          1.28374         5.22228         1.22685
C          2.58072         5.99583         1.25684
C          3.90665         5.24471         1.27977
C          5.21735         5.96901         1.06072
C          6.50688         5.13956         0.79617
C          7.61622         5.85373         0.03093
C          8.75759         5.08526        -0.32006
C         -7.39241         7.03822        -1.04245
C         -6.25974         7.90729        -0.75177
C         -5.00967         7.25375        -0.18776
C         -3.65526         7.81399        -0.71239
C         -2.56270         7.30035         0.28455
C         -1.22758         8.03001         0.10694
C          0.04964         7.31922         0.38112
C          1.44505         7.58352        -0.20181
C          2.52014         7.53550         0.90602
C          3.85541         8.19664         0.52633
C          5.17996         7.44194         0.65912
C          6.37219         8.02351        -0.07763
C          7.52271         7.16466        -0.37993
C         -6.09580         9.22884        -1.40000
C         -4.93602         9.92365        -1.30128
C         -3.68563         9.33240        -0.83395
C         -2.50848        10.01051        -0.81239
C         -1.17811         9.27696        -0.79599
C         -0.02488        10.15459        -0.32654
C          1.26854         9.90896        -0.50395
C          2.53467        10.07368        -0.87266
C          3.79070         9.46693        -0.32469
C          5.00563         9.83111        -1.09278
C          6.18007         9.19268        -0.96175
C        -10.89813        -0.77445        -1.39727
C        -10.03915        -1.52297        -0.44892
C         -8.96539        -0.78310         0.32431
C         -7.80204        -1.59460         0.96773
C         -6.48290        -0.77287         1.21229
C         -5.17571        -1.51329         1.36011
C         -3.86516        -0.74991         1.39748
C         -2.56204        -1.48627         1.22355
C         -1.36441        -0.70671         0.74917
C         -0.07495        -1.41798         0.45890
C          1.22589        -0.66265         0.32056
C          2.52121        -1.28321         0.84986
C          3.72905        -0.62540         0.17749
C          5.03462        -1.33094         0.12231
C          6.19961        -0.63255         0.07950
C          7.47862        -1.38658        -0.11078
C          8.79832        -0.73812         0.08676
C         10.15578        -1.41660        -0.19473
C         10.95759        -0.56945        -1.16259
C         -9.98327        -3.02561        -0.70075
C         -8.72125        -3.70415        -0.23194
C         -7.53864        -2.88115         0.16811
C         -6.24392        -3.61311         0.30748
C         -5.12535        -3.02146         1.12753
C         -3.80692        -3.74994         1.06525
C         -2.57462        -2.93871         0.83645
C         -1.28592        -3.63238         0.51085
C         -0.01497        -2.88149         0.78987
C          1.28076        -3.59807         1.04589
C          2.59160        -2.83130         0.94112
C          3.87935        -3.56412         0.65862
C          4.94697        -2.80263        -0.10229
C          6.13063        -3.46383        -0.73152
C          7.22464        -2.48257        -1.13197
C          9.25213        -3.77548        -0.97701
C         10.15580        -2.91787        -0.53253
C         -8.66852        -5.06076        -0.28436
C         -7.46530        -5.84999        -0.06937
C         -6.14231        -5.09732        -0.15517
C         -5.02110        -5.87870         0.53484
C         -3.71825        -5.16219         0.59604
C         -2.54021        -5.82156         0.45288
C         -1.23460        -5.12299         0.44456
C          0.04207        -5.87166         0.65705
C          1.32120        -5.11968         1.00563
C          2.61130        -5.84764         0.75946
C          3.90717        -5.07670         0.53169
C          5.11130        -5.69833        -0.11449
C          6.37218        -4.90235        -0.41637
C          7.61834        -5.65129        -0.81280
C          8.69365        -4.86937        -1.50740
C         -7.49391        -7.20820        -0.06477
C         -6.31012        -8.12989         0.15533
C         -5.03261        -7.36542         0.50391
C         -3.69644        -8.10313         0.43416
C         -2.48718        -7.25743        -0.00706
C         -1.34428        -8.09816         0.63782
C          0.02153        -7.38791         0.96421
C          1.22283        -8.02293         0.25459
C          2.53198        -7.28740         0.29156
C          3.70819        -8.24338         0.43391
C          5.05284        -6.90098        -1.03638
C          6.27458        -7.76516        -1.04702
C          7.48632        -7.13420        -1.00938
C         -6.09226        -9.12230        -0.96114
C         -4.89848        -9.72368        -1.15462
C         -3.68731        -9.32839        -0.45966
C         -2.47994        -9.93378        -0.67615
C         -1.22803        -9.40364        -0.14455
C         -0.05247       -10.05788        -0.32972
C          1.26956        -9.55445         0.21029
C          2.46296       -10.03969        -0.60158
C          3.66569        -9.41298        -0.50390
C          4.90814        -9.88459        -1.11511
C          6.07548        -9.19442        -1.27096
O         -0.52301         8.18295         1.38796
O          3.95563         9.51665         1.12457
O          3.49550        -0.00358        -1.12524
O          4.51700        -8.17058         1.33914
O          4.81100         3.02287         1.93501
O        -10.23085        -1.15688         0.94507
O         -6.50644        -2.72283        -0.84532
O          1.11612         0.13486        -0.88762
O          4.93053        -3.21492        -1.52250
O          4.71083         5.71317         2.39666
O          4.19751        -6.98260        -1.90333
O         -4.86427         3.55146         1.94188
O          8.15467        -1.46292         1.19963
O          4.94777        -5.73802         1.32130
O         -2.13613        -3.12106        -0.55018
O         -7.10979         1.88896        -1.86525
O         -5.28052        -6.62860         1.75857
O          7.97991         1.21769        -1.12258
O        -10.02105         1.37520         0.77917
O          0.52330         3.32426         2.51412
O          1.71978         7.30967        -1.35818
O         -0.98641        -1.01391        -0.60827
O         -5.96491        -1.12073         2.52366
O          0.45261        -3.11593         2.15694
O         -0.38259        -5.56404        -0.70014
O         -5.80912         8.04071         0.68103
O          3.56467        -3.13892         2.00373
O          1.78377         5.79171         2.46016
O          6.16809         8.22800         1.37214
O         -1.90872        -8.45375         1.94745
O         -0.23435         5.23433        -0.70331
O          7.06089         4.71171         2.08591
O         -0.34416         0.81223         2.31911
O          7.41208        -5.17339         0.55975
O          1.74578        -7.41504        -0.94097
O         -3.36299         7.35774        -1.99091
O         -7.25693         1.59359         1.74952
O          7.50897        -2.26823        -2.29794
O         -3.12926         5.12978        -1.02640
O         -3.02691        -1.15911         2.54197
O         -3.37917        -8.50791         1.80545
O         -6.04883         5.51315         1.24971
O          7.57122         3.31271         1.92011
O         -2.51910         2.37994         2.55660
O          2.08905        -5.66382         2.10734
O         -4.58782        -3.69066         2.29887
O         -5.87140        -5.15115        -1.52272
O          2.35928         2.77202        -0.57053
O         10.85316        -1.34018         1.06831
H         10.25645        -1.70601         1.75683
O         -6.64268        -8.92092         1.32891
H         -6.48050        -8.34740         2.11120
O         -0.95566         8.81203        -2.13667
H         -1.74026         8.24431        -2.37630
O          5.31900         1.70921        -1.50572
H          4.79627         1.00382        -1.96130
O          2.53879        -0.80421         2.21701
H          2.96897        -1.48190         2.78774
O          1.45025       -10.04102         1.56321
H          0.97133        -9.43199         2.17433
O         -2.39488        -7.25846        -1.43187
H         -1.70047        -6.60973        -1.69340
O         -3.02597         7.54206         1.61689
H         -2.26623         7.86250         2.15767
O          6.00980         0.77478         1.96758
H          6.69488         0.20155         2.37282
O         -8.25675        -2.05833         2.23844
H         -8.44200        -1.28780         2.81459
O          6.22170         4.12502        -1.33867
H          6.01198         3.29299        -1.83359
O         10.78615         1.44031         1.28382
H         10.32496         2.05313         1.89385
O         -5.48273         4.58363        -2.42005
H         -4.60379         5.05561        -2.43150
O        -10.10901        -3.26482        -2.11662
H         -9.21387        -3.37492        -2.50013
O         -1.34907         2.94196        -0.71490
H         -0.83050         3.51114        -1.33098
O          0.30888        -7.57976         2.35859
H         -0.52882        -7.52902         2.87279
O          1.99604         8.21869         2.03290
H          2.68569         8.26957         2.72638
O         -5.19655         3.43718        -1.56756
H         -6.46540         2.39811        -2.41427
H         11.57248        -1.07058        -1.92455
H         11.62398         1.36788        -1.70281
H         10.86003         3.49445        -0.70655
H          9.61010         5.59150        -0.79852
H          8.33568         7.59217        -0.98785
H          7.03922         9.49356        -1.58000
H          4.91860        10.65783        -1.81398
H          2.70337        10.72076        -1.75573
H         -0.29682        10.96837         0.37212
H         -2.49864        11.09478        -1.00875
H         -4.88624        10.94723        -1.70379
H         -6.97768         9.68514        -1.87392
H         -8.21390         7.45830        -1.64554
H         -9.42506         5.35613        -1.53260
H        -10.64102         3.34873        -1.47099
H        -11.54142         1.08377        -2.20049
H        -11.55832        -1.36583        -2.04744
H        -10.87734        -3.49341        -0.21010
H         -9.58449        -5.61076        -0.55590
H         -8.47558        -7.71009        -0.08894
H         -6.96709        -9.43785        -1.54817
H         -4.80191       -10.51003        -1.91938
H         -2.42200       -10.83066        -1.31186
H         -0.05879       -11.02463        -0.85790
H          2.34678       -10.94574        -1.21821
H          4.90743       -10.94055        -1.43232
H          6.95063        -9.75138        -1.64283
H          8.41427        -7.72011        -1.10872
H          8.86202        -5.08402        -2.57902
H         11.10057        -3.38518        -0.18457
