         671
 CSIRO Nanostructure Databank - Neutral Graphene Oxide Data Set
C          5.92355        31.70465         0.20133
C          5.92923        33.03273        -0.04182
C          8.37362        27.34196         0.24460
C          8.34573        28.77782         0.14156
C          7.17090        29.49474         0.36223
C          8.41197        31.64993        -0.00822
C          7.19193        30.98024         0.56841
C          8.41666        33.05308        -0.17460
C          7.16373        33.80109        -0.10525
C          8.37101        35.94564        -0.31746
C          7.16193        35.17642        -0.21233
C          8.36652        37.32347        -0.33628
C         10.86767        23.10875         0.92974
C         10.82404        24.53936         0.69644
C          9.62427        25.22065         0.56018
C         10.81519        27.29920        -0.01735
C          9.58377        26.62409         0.25548
C         10.76354        28.68782        -0.59940
C          9.56821        29.48058        -0.15067
C         10.82321        31.58847        -0.52200
C          9.59724        30.89564        -0.22065
C         10.83144        33.01067        -0.63388
C          9.61659        33.73335        -0.46324
C         10.77901        35.91409        -1.07589
C          9.69839        35.22287        -0.25051
C         10.79003        37.40438        -0.97529
C          9.57520        38.10377        -0.45680
C         10.81458        40.23491        -0.36676
C          9.58066        39.47381        -0.36508
C         10.83220        41.59102        -0.34956
C         13.31947        18.88835         1.83816
C         13.33010        20.37386         1.55948
C         12.13498        21.02375         1.36559
C         13.29704        23.25748         1.42624
C         12.04719        22.45278         1.17771
C         13.30012        24.60088         0.73505
C         12.07601        25.25028         0.52472
C         13.28405        27.32226        -0.11526
C         12.04465        26.62745         0.10446
C         13.27581        28.74143        -0.37407
C         12.05782        29.44301        -0.46562
C         13.28152        31.56675        -0.70585
C         12.05135        30.85723        -0.58094
C         13.26004        32.98259        -0.92537
C         12.05298        33.69899        -0.90705
C         13.34002        35.86195        -1.38074
C         12.02362        35.10814        -1.47222
C         13.34432        37.29840        -0.83104
C         12.08839        38.18835        -1.11179
C         13.35484        40.23392        -0.25079
C         12.07524        39.42514        -0.12591
C         13.35302        41.59643        -0.27258
C         12.07129        42.37218         0.00074
C         13.32744        44.52843        -0.20893
C         12.07813        43.78105        -0.61978
C         13.32447        45.83272         0.17633
C         16.06269        14.67429         1.79612
C         15.92637        16.08126         2.15994
C         14.73506        16.87470         1.78451
C         15.87412        19.04221         2.40400
C         14.67989        18.21637         1.93080
C         15.87263        20.41906         1.75060
C         14.58860        21.10305         1.49068
C         15.84294        23.25022         1.28038
C         14.56307        22.45920         1.26122
C         15.77471        24.58339         0.55430
C         14.52764        25.26068         0.44167
C         15.75295        27.32714        -0.17435
C         14.51117        26.63154         0.01081
C         15.74690        28.74218        -0.36817
C         14.51544        29.45087        -0.46305
C         15.75271        31.57468        -0.82375
C         14.51752        30.86460        -0.67150
C         15.71745        32.96839        -1.14738
C         14.49674        33.65368        -1.20824
C         15.75031        35.67460        -1.84149
C         14.49288        35.08019        -1.48592
C         15.74804        37.73254        -1.58702
C         14.58581        38.15962        -0.97131
C         15.90938        40.24987        -0.42420
C         14.64126        39.42740        -0.12646
C         15.79044        41.69710        -0.69937
C         14.58871        42.37041        -0.46742
C         15.78851        44.54258        -0.35122
C         14.57553        43.80223        -0.36161
C         15.82400        45.88997         0.03664
C         14.58626        46.53050         0.61650
C         15.78811        48.73112         0.34042
C         14.58739        48.01770         0.41126
C         15.80373        50.15507         0.35458
C         17.77078        10.33994         0.68704
C         18.16118        11.64397         1.24679
C         17.17265        12.56936         1.50717
C         18.48359        14.70322         2.23654
C         17.24845        13.96823         1.91442
C         18.47175        16.09244         2.27543
C         17.22167        16.84741         2.39411
C         18.38123        18.99561         2.04944
C         17.20888        18.31787         2.21246
C         18.35476        20.51256         2.04231
C         17.04324        21.07045         1.51991
C         18.25844        23.19703         0.69191
C         16.98583        22.38968         0.75966
C         18.23469        24.49148         0.25485
C         16.96821        25.20938         0.16674
C         18.22245        27.34041        -0.19694
C         16.98345        26.61609        -0.12905
C         18.19142        28.74982        -0.23262
C         16.98140        29.45904        -0.37588
C         18.21983        31.58909        -0.58912
C         16.99025        30.88803        -0.60131
C         18.28676        32.96865        -1.09507
C         16.98739        33.67505        -1.43904
C         18.24750        35.89338        -1.52597
C         17.02536        35.15399        -1.54637
C         18.27310        37.36944        -1.47344
C         17.07609        38.12961        -1.26963
C         18.30821        40.26115        -1.45713
C         17.15528        39.53951        -0.84799
C         18.24272        41.74514        -1.54076
C         16.95419        42.43951        -1.20177
C         18.29934        44.60367        -0.75153
C         16.99388        43.93497        -0.93917
C         18.28268        45.91602        -0.30464
C         17.04980        46.61698        -0.00828
C         18.28235        48.77256         0.15192
C         17.05122        48.01876         0.22529
C         18.27502        50.19731         0.29664
C         17.01392        50.90337         0.41303
C         18.26507        52.99392         1.04293
C         17.01226        52.28671         0.60408
C         18.25100        54.49470         0.93953
C         20.59751         6.28826        -0.31780
C         20.00774         7.51049        -0.43229
C         19.08442         8.04338         0.57311
C         20.50625        10.94663        -0.56701
C         18.52701         9.25061         0.59628
C         20.65840        11.65575         0.74560
C         19.55413        11.95625         1.53037
C         20.99070        14.68518         2.25941
C         19.76812        14.03603         2.40307
C         20.98179        16.12797         2.05071
C         19.74519        16.87715         2.49289
C         20.81757        18.93579         1.59265
C         19.67281        18.30201         1.98260
C         20.80285        20.34904         1.14062
C         19.53334        21.11132         1.29996
C         20.79060        23.30746         0.84997
C         19.52510        22.59593         1.13910
C         20.79761        24.39466        -0.21537
C         19.44522        25.15128        -0.39288
C         20.69372        27.33426        -0.34556
C         19.50127        26.64935        -0.18496
C         20.65420        28.81213        -0.66977
C         19.48330        29.48134         0.02941
C         20.64654        31.66139        -0.27126
C         19.45004        30.94955        -0.30566
C         20.58655        33.15911        -0.07193
C         19.45356        33.81015        -0.84606
C         20.76193        35.85714        -1.15187
C         19.45940        35.15076        -1.20532
C         20.79577        37.35069        -1.26655
C         19.51218        38.07953        -1.35519
C         20.78783        40.23485        -1.40179
C         19.59469        39.52253        -1.38308
C         20.83842        41.71876        -1.52257
C         19.52253        42.53338        -1.55785
C         20.77838        44.55794        -0.85696
C         19.53927        43.90787        -1.02717
C         20.80825        45.95993        -0.55454
C         19.57212        46.61405         0.01370
C         20.68476        48.87887        -0.40204
C         19.48074        48.10412        -0.14631
C         20.70595        50.27045         0.01911
C         19.51328        50.91561         0.32801
C         20.65718        53.10319         0.24465
C         19.52562        52.36455         0.50474
C         20.55966        54.59470        -0.04306
C         19.35348        55.22658         0.62429
C         20.59277        57.32092         0.94279
C         19.39670        56.65253         0.87986
C         20.66318        58.75172         1.20803
C         22.82481         3.73026        -1.89538
C         21.75583         4.34716        -1.25304
C         22.69543         6.54706        -1.74538
C         21.66343         5.75145        -1.16560
C         22.73223         8.00730        -1.60768
C         21.60414         8.81396        -1.39624
C         22.96696        10.67989        -0.62514
C         21.70812        10.14487        -0.92393
C         23.09628        11.84564         0.24294
C         21.99400        12.05066         1.09374
C         23.37914        14.56004         1.50527
C         22.23317        13.97169         2.04331
C         23.41206        16.03663         1.66681
C         22.12299        16.77164         1.68846
C         23.35432        18.99256         1.36468
C         22.07069        18.19192         1.20447
C         23.30494        20.41397         0.91741
C         22.09750        21.06753         0.96282
C         23.34408        23.27070         0.63905
C         22.08086        22.54436         0.97448
C         23.26552        24.65520         0.13834
C         22.02938        25.27887        -0.07398
C         23.19048        27.40590        -0.44057
C         21.97194        26.66857        -0.32688
C         23.15789        28.86533        -0.42756
C         21.93639        29.55207        -0.37937
C         23.12363        31.65495         0.04184
C         21.90929        30.96086        -0.20656
C         23.13016        33.14222         0.34361
C         21.91273        33.84686        -0.23145
C         23.20423        35.90845        -0.44210
C         21.93645        35.15117        -0.58445
C         23.23692        37.39180        -0.46438
C         21.90934        38.14462        -0.58299
C         23.21197        40.30645        -0.63710
C         22.10573        39.47826        -1.31956
C         23.36244        41.69446        -1.28967
C         22.06249        42.45510        -1.15954
C         23.26982        44.58180        -0.83439
C         22.04107        43.84402        -0.99909
C         23.26347        45.96473        -0.66304
C         22.00762        46.65696        -0.57479
C         23.26265        48.86300        -0.36776
C         22.01937        48.13568        -0.59975
C         23.24889        50.26776        -0.18364
C         22.00277        50.96325         0.31677
C         23.10996        53.15735        -0.10124
C         21.94678        52.45347         0.05164
C         23.12771        54.66629        -0.25008
C         21.85688        55.31984         0.25307
C         23.09692        57.32457         1.12401
C         21.84539        56.60172         0.70037
C         23.10946        58.79632         0.71007
C         21.81166        59.46784         1.11494
C         23.11182        61.52473         1.75659
C         21.80341        60.97216         1.26235
C         23.87620         4.50686        -2.39036
C         25.02988         6.69800        -2.77379
C         23.83435         5.90125        -2.28914
C         25.19839         8.00201        -2.02709
C         24.01416         8.65100        -1.56748
C         25.39056        10.59689        -0.94086
C         24.12957         9.96725        -1.04129
C         25.40509        12.02252        -0.56839
C         24.32188        12.59034         0.27504
C         25.74319        14.61268         0.65098
C         24.48011        13.88070         0.85318
C         25.98381        15.98415         1.31221
C         24.69874        16.77639         1.57689
C         25.70698        18.89821         0.44564
C         24.66181        18.27789         1.35013
C         25.78153        20.39801         0.51193
C         24.56977        21.11162         0.65585
C         25.77285        23.21103         0.13720
C         24.57891        22.50776         0.42979
C         25.74517        24.63307        -0.07976
C         24.48656        25.33812        -0.09665
C         25.67121        27.42410        -0.71504
C         24.42301        26.71827        -0.40946
C         25.62552        28.94918        -0.64528
C         24.36619        29.59764        -0.27239
C         25.56759        31.69326         0.62848
C         24.34405        30.96599         0.06940
C         25.63947        33.09649         0.05002
C         24.44770        33.75576        -0.11787
C         25.75795        35.88614        -0.70230
C         24.45378        35.12249        -0.64449
C         25.71711        37.37206        -0.74446
C         24.53670        38.09315        -0.71436
C         25.69128        40.24878        -0.48328
C         24.52707        39.54140        -0.66472
C         25.69453        41.70570        -0.31891
C         24.55625        42.41296        -0.71697
C         25.64267        44.57827        -0.10831
C         24.61037        43.88616        -0.97009
C         25.70999        46.04910        -0.25740
C         24.50017        46.72603        -0.50243
C         25.72921        48.86133        -0.32664
C         24.49822        48.15161        -0.41648
C         25.72100        50.31037        -0.25263
C         24.44699        50.98234        -0.18203
C         25.68723        53.21691        -0.17959
C         24.40178        52.45695        -0.28299
C         25.64302        54.65992         0.15717
C         24.39726        55.31345         0.28878
C         25.58827        57.34322         0.96061
C         24.38022        56.64124         0.72904
C         25.51491        58.74126         1.36660
C         24.35031        59.45133         1.29959
C         24.27003        60.83084         1.74087
C         26.43209         8.62645        -1.91175
C         27.84496        10.60003        -1.24987
C         26.56209         9.94310        -1.36944
C         27.97192        11.91690        -0.84543
C         26.73840        12.71061        -0.61693
C         28.11645        14.68801        -0.19997
C         26.83072        14.00529         0.06988
C         28.21131        16.12877         0.06263
C         27.03222        16.82916         0.60904
C         28.18797        18.86350        -0.21010
C         27.02045        18.17489         0.47703
C         28.22683        20.35559         0.01870
C         26.99973        21.06977         0.20911
C         28.23164        23.19566        -0.13748
C         27.00560        22.49604         0.08216
C         28.21368        24.61661        -0.30100
C         26.96884        25.32626        -0.30789
C         28.17076        27.45600        -0.60549
C         26.96374        26.73781        -0.54742
C         28.18763        28.93980        -0.55306
C         26.89529        29.70335        -0.46781
C         28.14752        31.69802         0.31439
C         26.89657        30.86483         0.51418
C         28.12266        33.07665         0.29429
C         26.90467        33.81031         0.01687
C         28.22855        35.91272        -0.17348
C         26.96646        35.18534        -0.24084
C         28.25902        37.34208        -0.42929
C         27.01998        38.04989        -0.81166
C         28.15926        40.16273         0.07294
C         26.98723        39.56810        -0.60046
C         28.09781        41.64781         0.46705
C         26.88739        42.37269         0.09710
C         28.09391        44.57086         0.71938
C         26.83858        43.81549         0.36968
C         28.12493        46.04099         0.43010
C         26.91127        46.74317        -0.04511
C         28.20688        48.85358        -0.04954
C         26.95076        48.15195        -0.17391
C         28.24545        50.34194        -0.31487
C         26.91280        51.01663        -0.12295
C         28.20395        53.18123         0.16835
C         26.88779        52.44923         0.34827
C         28.18064        54.69338         0.01042
C         26.85551        55.34632         0.36757
C         26.81857        56.69408         0.74962
C         29.25291        12.55421        -0.63350
C         30.61260        14.61645        -0.19389
C         29.36462        13.90139        -0.33557
C         30.70176        15.98356         0.02402
C         29.52095        16.79671         0.11797
C         30.73715        18.91946        -0.04168
C         29.51247        18.17913         0.05392
C         30.70441        20.32298        -0.18883
C         29.44497        21.04270        -0.12486
C         30.68884        23.18295        -0.42929
C         29.46042        22.47775        -0.19298
C         30.66071        24.59464        -0.56292
C         29.44157        25.31847        -0.50043
C         30.62987        27.51060        -0.52762
C         29.41356        26.76361        -0.56490
C         30.63674        28.87248        -0.14340
C         29.41416        29.59971        -0.04454
C         30.64397        31.69603         0.39876
C         29.39610        30.96998         0.25982
C         30.65089        33.09759         0.49183
C         29.35989        33.85089         0.67093
C         30.73435        35.89882        -0.14895
C         29.40303        35.23911         0.11353
C         30.68817        37.36327         0.27121
C         29.43743        38.07769        -0.21424
C         30.64665        40.21343         0.25561
C         29.44329        39.48423        -0.05670
C         30.58494        41.67246         0.44396
C         29.39344        42.34914         0.55991
C         30.52691        44.52343        -0.03398
C         29.43653        43.83796         0.85753
C         30.59670        46.02189         0.19706
C         29.42493        46.73832         0.26850
C         30.67714        48.89934         0.19944
C         29.39932        48.17813         0.15629
C         30.65900        50.28792         0.31987
C         29.34812        51.00675         0.52200
C         29.36294        52.49781         0.25994
C         32.03397        16.69013         0.18266
C         33.16324        18.89709        -0.17821
C         31.98495        18.19816        -0.03390
C         33.18745        20.32216        -0.33442
C         31.92872        21.05450        -0.36362
C         33.21205        23.12593        -0.96845
C         31.92085        22.44556        -0.52700
C         33.20430        24.61266        -0.67790
C         31.90097        25.30734        -1.05312
C         33.15552        27.48864        -0.33719
C         31.90205        26.80407        -0.76578
C         33.08261        28.88354         0.11495
C         31.88118        29.56359         0.13278
C         33.07952        31.68401         0.69354
C         31.87651        30.98886         0.39021
C         33.07921        33.06267         0.86362
C         31.88139        33.80616         0.62500
C         33.14451        35.95204         0.70487
C         31.92492        35.21875         0.48221
C         33.17405        37.39433         0.55484
C         31.98602        38.10433        -0.08194
C         33.06580        40.32707         0.75941
C         31.85939        39.55346         0.32925
C         33.10985        41.66261         0.01683
C         31.83874        42.43149         0.32838
C         33.06268        44.48675        -0.36252
C         31.83900        43.78266         0.19559
C         33.04391        45.98105        -0.13980
C         31.87329        46.71279         0.04974
C         31.87733        48.13995         0.12716
C         34.40049        21.01270        -0.32958
C         35.61989        23.13989        -0.24473
C         34.45226        22.42825        -0.45441
C         35.63728        24.57617        -0.22416
C         34.34844        25.26913        -0.33175
C         35.62305        27.45524         0.00830
C         34.32919        26.69365         0.17362
C         35.62084        28.85903         0.05847
C         34.35192        29.67136        -0.01883
C         35.58843        31.74402         0.57698
C         34.36965        30.91027         0.87440
C         35.60280        33.10715         0.88969
C         34.31391        33.76867         1.35984
C         35.53284        35.97783         1.44972
C         34.31267        35.24878         1.06670
C         35.53520        37.47587         1.38818
C         34.32879        38.15031         0.84009
C         35.58084        40.30886         0.82153
C         34.35210        39.55517         0.72101
C         35.53101        41.74270         0.69425
C         34.35853        42.45295         0.35223
C         34.30974        43.82756         0.16240
C         36.81480        25.30155        -0.11044
C         38.05561        27.48641        -0.15825
C         36.84962        26.75029        -0.07825
C         38.06197        28.89686        -0.12277
C         36.82367        29.57783         0.01136
C         38.08220        31.68850         0.42836
C         36.78620        31.08943        -0.06387
C         38.08535        33.14344         0.78203
C         36.79601        33.84693         0.92972
C         37.99681        36.03450         0.79187
C         36.87961        35.24860         1.48835
C         37.95480        37.39342         0.71588
C         36.88585        38.20003         1.42492
C         36.79374        39.64046         0.99104
C         39.29132        29.67081        -0.26500
C         40.50214        31.85766        -0.16269
C         39.32329        31.02898        -0.05631
C         40.47645        33.20982         0.05012
C         39.28524        33.93529         0.44234
C         39.17712        35.30293         0.36048
O         35.26963        36.80579         2.66543
O         25.13397        35.29648        -1.91889
O         24.21667        18.95381         2.55534
O         22.24475        12.59982         2.36354
O         25.28466        31.88062         2.01491
O         21.13417        36.53639        -2.41944
O         30.28920        44.35322        -1.39729
O         27.87146        40.57029         1.45275
O         24.18415        16.43169         2.90278
O         21.27474        48.65647        -1.76239
O         27.66463        29.75862        -1.68981
O         25.18265        52.89909        -1.50795
O         27.90263        45.50999         1.81879
O         23.27301        36.67042         0.83101
O         25.55858        28.25423        -1.92268
O         16.97516        39.91235         0.58063
O         32.82064        27.43321        -1.77448
O         15.63475        36.78914        -2.63813
O         25.69345        44.12962         1.27162
O         25.80209        12.82154        -1.74971
O         27.93079        15.66479        -1.33653
O         19.50900        11.04420        -1.26674
O         38.20045        32.07391         1.82044
O         27.22488        39.00153        -1.91485
O         19.74613        12.66813         2.73356
O         18.04484        40.90933        -2.73448
O         17.78795        33.05066        -2.48444
O         22.89373        23.12490         2.05055
O         10.34703        36.71385        -2.22117
O         16.38761        16.40315         3.52913
O         20.29600         8.31677        -1.55059
O         19.82823        20.50352        -0.00103
O         20.28210        42.30213        -2.77379
O         16.67602        43.40785        -2.27230
O         20.16114        23.48207         2.14050
O         20.72931        61.40905         2.10163
H         20.87355        61.03796         2.99587
O         36.73210        31.43906        -1.48778
H         35.87494        31.07181        -1.82375
O         13.26985        36.87958         0.57614
H         13.97012        37.36994         1.07828
O         11.92580        34.87469        -2.91987
H         11.38209        35.61081        -3.29082
O         28.62742        50.53997        -1.71012
H         27.93303        50.13987        -2.27464
O         14.71592        39.02636         1.29133
H         15.66920        39.14983         1.54500
O         33.11821        41.41375        -1.40080
H         33.07151        42.29764        -1.84573
O         26.59082        15.68478         2.59908
H         25.86169        15.72945         3.26562
O         33.26244        22.94957        -2.42045
H         32.61406        23.59724        -2.79944
O         32.21926        38.13728        -1.50847
H         31.89507        37.28853        -1.89681
O         22.54487        39.11115        -2.63921
H         23.00518        39.88386        -3.04619
O          7.31323        31.13961         2.04680
H          8.11868        30.65148         2.32288
O         19.12527        25.05686        -1.82900
H         18.30657        25.57542        -1.98572
O         15.73138        19.23403         3.84178
H         15.83586        18.34071         4.24695
O         14.66590        46.32907         2.08995
H         15.42680        46.85822         2.41165
O         37.26494        35.11975         2.88234
H         37.26350        36.03603         3.24892
O         27.92424        18.69974        -1.65517
H         28.00850        17.73805        -1.85797
O         10.17941        35.36726         1.12923
H          9.49833        34.99171         1.72635
O         29.25432        55.28453         0.74830
H         29.10641        55.10237         1.69860
O         32.92555        44.26899        -1.81309
H         31.93607        44.36092        -1.98367
O         23.06901        57.33710         2.58529
H         23.10643        56.40911         2.89721
O         12.18296        38.71136        -2.44277
H         11.60342        38.17091        -3.02382
O         18.47907        20.94378         3.41882
H         17.67667        20.64580         3.90147
O         19.75809        46.43333         1.48456
H         18.95917        46.79492         1.92587
O         33.03604        16.09564        -0.64705
H         32.78416        16.23776        -1.58241
O         34.08250        26.59166         1.61388
H         34.89329        26.23373         2.03318
O         21.95160        18.03906        -0.25691
H         21.64706        18.89219        -0.63657
O         25.05436        44.04723        -2.35810
H         24.67041        43.30412        -2.88004
O         19.73982        29.37334         1.45760
H         19.06348        29.89785         1.93424
O         21.06248        23.61002        -1.41170
H         20.59770        24.04859        -2.16205
O         26.22390         5.91381        -2.72158
H         26.37801         5.65251        -1.79096
O         11.94379        38.98115         1.24260
H         12.84235        38.91823         1.63903
O         37.32974        38.23644         2.82286
H         36.56797        38.53528         3.36488
O         28.96261        50.81365         1.93073
H         29.73982        51.03072         2.48763
O         29.87209        43.96254         2.22117
H         29.29739        44.64525         2.64619
O         34.29102        30.18229        -1.40198
H         33.98551        29.44198        -1.97371
O         22.12355        50.85648         1.79263
H         23.01417        51.18814         2.04020
O         30.62494        37.38652         1.71797
H         29.92807        36.75897         2.00983
O         34.45903        30.48630         2.25757
H         34.44251        31.30000         2.81132
O         18.32212        52.73007         2.50620
H         19.20243        53.02943         2.81980
O         26.66130        52.38245         1.79894
H         27.38670        51.80774         2.15792
O         12.47869        18.21147         0.89639
H         12.78330        18.43704        -0.00620
O         34.31539        33.61206         2.82285
H         35.07936        34.12568         3.17248
O         13.28789        23.59253         2.87879
H         13.11806        22.75601         3.36425
O         20.34346        54.69686        -1.48343
H         21.23483        54.74821        -1.90763
O         31.80274        25.19243        -2.51698
H         32.33805        25.93576        -2.88386
O         25.20288        18.62213        -0.91083
H         25.96167        18.77334        -1.52903
O         20.41603        28.90796        -2.10285
H         21.21648        28.58640        -2.56837
O         30.92662        35.82859        -1.60633
H         30.93438        34.88248        -1.86504
O         23.22002        58.85184        -0.73293
H         23.30329        59.79000        -1.00055
O         29.22483        34.05077         2.13860
H         28.96253        33.18871         2.52984
O         22.85515        40.61526         0.72280
H         22.38850        39.83098         1.10884
O         20.25047        33.34316         1.35143
H         21.10765        33.26572         1.84697
O         21.42237        38.39914         0.75771
H         21.80366        37.68311         1.32708
O         27.07652        30.21834         1.79857
H         26.45159        30.72871         2.40156
O         23.59256        41.58869        -2.74706
H         22.81819        41.97947        -3.21044
O         23.04155        33.27758         1.78961
H         23.85607        32.77918         2.13647
O         32.89013        40.67114         2.17141
H         32.61796        39.86141         2.65367
O         12.02776        42.58064         1.44248
H         11.94770        41.70051         1.86850
O         16.10456        23.56989         2.67110
H         15.25762        23.90278         3.05371
O         10.57333        28.48599        -2.06445
H         11.36382        28.00623        -2.39291
O         16.65539        22.05587        -0.62065
H         17.41880        21.57495        -1.00580
O         12.02534        43.68653        -2.04897
H         12.87580        43.31994        -2.36933
O         23.15372        54.89660        -1.70236
H         23.89797        54.34749        -2.05325
O         19.86904        17.01076         3.94746
H         19.95330        16.11197         4.33053
H          4.97534        31.14777         0.23665
H          4.98424        33.56748        -0.22351
H          7.43174        26.81230         0.45152
H          6.24396        28.95238         0.60529
H          6.20251        35.71678        -0.21510
H          7.41051        37.86266        -0.24279
H          9.92652        22.54072         0.86306
H          8.67403        24.68325         0.70009
H          8.63704        40.01015        -0.17764
H          9.88843        42.15117        -0.44523
H         12.83511        18.74292         2.84587
H         11.20435        20.43573         1.34515
H         11.16541        44.33308        -0.28820
H         12.37321        46.38017         0.26308
H         15.17763        14.16744         1.38142
H         13.82898        16.33526         1.46319
H         13.63738        48.56672         0.49500
H         14.84528        50.69211         0.41956
H         16.74171        10.28221         0.28246
H         16.14592        12.24453         1.26707
H         16.05374        52.82520         0.66358
H         17.38173        55.00498         1.38614
H         20.26021         5.63355         0.50126
H         18.92198         7.38935         1.45254
H         18.45710        57.17618         1.11429
H         19.72308        59.27572         1.44452
H         22.86363         2.63500        -1.97411
H         20.96277         3.73374        -0.80171
H         23.09877        62.55941         2.13074
H         21.60580        61.42050         0.24363
H         24.75639         4.02960        -2.84370
H         24.86805         6.95187        -3.86046
H         26.43611        59.22997         1.72162
H         25.19392        61.29971         2.11549
H         27.32748         8.11096        -2.29050
H         28.75002        10.01485        -1.47432
H         28.37862        54.92903        -1.07294
H         27.76268        57.24282         0.88064
H         30.16155        11.94497        -0.75919
H         31.54825        14.04626        -0.30411
H         31.60429        50.85074         0.37585
H         30.32458        53.03226         0.19500
H         32.37326        16.52168         1.24606
H         34.11845        18.35106        -0.17397
H         33.98885        46.52902        -0.28772
H         32.84214        48.67066         0.11192
H         35.33387        20.45784        -0.14686
H         36.55336        22.59962        -0.02192
H         36.47532        42.29953         0.80415
H         35.15711        44.45739         0.47937
H         37.77279        24.76010        -0.09180
H         39.00820        26.94502        -0.25997
H         38.80590        37.93743         0.27636
H         37.72506        40.22591         1.03113
H         40.21366        29.13513        -0.53836
H         41.44527        31.37880        -0.46685
H         41.39733        33.79294        -0.10225
H         40.03296        35.89391        -0.00198
