         276
 CSIRO Nanostructure Databank - Neutral Graphene Oxide Data Set
C        -10.72646         0.92644         0.46153
C         -9.66412         1.58816        -0.28630
C         -8.61250         0.69595        -0.82813
C         -7.27666         1.32545        -1.15503
C         -5.96943         0.56029        -0.90833
C         -4.88813         1.42294        -0.21969
C         -3.70855         0.72794         0.40569
C         -2.52634         1.41056         0.56846
C         -1.25521         0.71799         0.80562
C         -0.08042         1.41578         0.90976
C          1.25558         0.71370         1.04786
C          2.44532         1.47831         0.51729
C          3.65667         0.80786         0.26472
C          4.87884         1.50700         0.36465
C          6.16507         0.75719         0.59184
C          7.45322         1.54943         0.45940
C          8.57496         0.80595         0.58179
C         10.13826         1.81524        -0.50337
C         11.02102         0.79988        -1.09855
C         -9.56873         2.95299        -0.41299
C         -8.39860         3.64178        -0.95319
C         -7.22703         2.80293        -1.32076
C         -5.88288         3.45795        -1.50058
C         -4.73453         2.81238        -0.77324
C         -3.40184         3.50068        -0.72972
C         -2.36262         2.83868         0.12193
C         -1.33066         3.66721         0.84599
C         -0.05945         2.87820         1.19274
C          1.25134         3.57555         1.15566
C          2.45057         2.87192         0.69141
C          3.67323         3.56992         0.66360
C          4.89425         2.88953         0.59498
C          6.12352         3.53169         1.20278
C          7.57027         3.06709         0.66873
C          8.38987         3.69941        -0.50585
C          9.50545         2.88901        -1.07421
C         -8.30403         5.00222        -1.02654
C         -7.01658         5.77930        -1.23058
C         -5.81249         4.93106        -1.73179
C         -4.46233         5.66473        -1.83003
C         -3.32394         4.99679        -1.00682
C         -2.28419         5.79543        -0.27086
C         -1.34608         5.15953         0.70280
C         -0.50451         5.95990         1.42186
C          1.37789         4.86062         1.59157
C          2.56004         5.76243         1.38686
C          3.62951         5.05487         0.48937
C          4.93797         5.74635         0.79691
C          6.00040         5.03965         1.31298
C          7.22367         6.00506        -0.81694
C          8.28338         4.96743        -1.01006
C         -7.03331         6.97803        -2.11304
C         -5.92088         7.95982        -1.89080
C         -4.55213         7.20582        -1.65017
C         -3.47422         7.99996        -0.97892
C         -2.49756         7.27079        -0.09664
C         -1.46715         8.08390         0.59470
C         -0.30909         7.45955         1.34948
C          1.01870         7.93169         0.73845
C          2.29828         7.14107         0.71940
C          3.58744         7.91086         0.44047
C          4.92622         7.20072         0.46042
C          6.23249         7.99417         0.52572
C          7.37138         7.16058        -0.10011
C         -6.17003         8.87148        -0.68788
C         -5.19307         9.57623        -0.10000
C         -3.77045         9.51167        -0.61500
C         -2.70790        10.06449         0.29716
C         -1.34043         9.52282         0.03394
C         -0.06532        10.17159         0.53853
C          1.08410         9.43571         0.64953
C          2.38968        10.07745         0.64395
C          3.56798         9.39287         0.49216
C          4.82323        10.04649         0.13089
C          6.00309         9.39697        -0.00621
C        -10.81256        -0.41560         0.63706
C        -10.01427        -1.44909        -0.14218
C         -8.72217        -0.78916        -0.70733
C         -7.40375        -1.47669        -0.59556
C         -6.29590        -0.64728        -0.01101
C         -5.04899        -1.48005         0.33522
C         -3.81351        -0.72907         0.72810
C         -2.52613        -1.47663         1.10763
C         -1.27860        -0.78707         0.54070
C          0.01050        -1.50478         1.08159
C          1.18167        -0.70873         0.53126
C          2.38556        -1.42164         0.04173
C          3.67714        -0.62799        -0.22396
C          4.92222        -1.42324         0.27741
C          6.13871        -0.55821        -0.23942
C          7.49320        -1.29689        -0.39141
C          8.72038        -0.58068         0.06929
C         10.08400        -1.23822         0.24574
C         11.04079        -0.50981        -0.72945
C         -9.79443        -2.76619         0.60544
C         -9.09238        -3.77207         0.01876
C         -7.30913        -2.80444        -0.77612
C         -6.11490        -3.65203        -0.54876
C         -4.81852        -2.85765        -0.32470
C         -3.70093        -3.62304         0.38325
C         -2.57458        -2.96479         0.77179
C         -1.28001        -3.70839         1.21357
C         -0.08727        -2.95160         0.61002
C          1.17931        -3.67964         0.20006
C          2.47245        -2.90116         0.42910
C          3.60522        -3.62975        -0.29783
C          4.91357        -2.81849        -0.31050
C          6.23705        -3.49587        -0.28700
C          7.56628        -2.79686        -0.52559
C          8.87794        -3.45446        -0.17007
C         10.02698        -2.74208        -0.05639
C         -8.76577        -5.14296         0.40942
C         -7.58348        -5.78172         0.10293
C         -6.26557        -5.13299        -0.27599
C         -4.97096        -5.94005         0.04341
C         -3.85273        -5.08689         0.65694
C         -2.61235        -5.85653         0.99554
C         -1.32304        -5.13873         0.66745
C         -0.02581        -5.86560         0.21191
C          1.25843        -5.14306         0.31756
C          2.55529        -5.73987         0.50374
C          3.73304        -5.04761         0.22325
C          5.09084        -5.69599         0.53958
C          6.32834        -4.94829         0.01174
C          7.52857        -5.58258        -0.64300
C          8.55777        -4.55398        -1.18875
C         -7.55012        -7.23949         0.10048
C         -6.40127        -7.96557         0.25021
C         -5.20319        -7.24732         0.84197
C         -3.92217        -8.10940         0.86423
C         -2.57844        -7.38652         1.01071
C         -1.61885        -7.68920        -0.13822
C         -0.12120        -7.39719         0.16339
C          0.60337        -8.16577        -0.95239
C          2.83750        -7.10474         1.09551
C          3.87999        -7.92476         0.33231
C          5.14456        -7.16507         0.10571
C          6.17093        -7.66348        -0.85892
C          7.31264        -6.96589        -1.14237
C         -6.33473        -9.36537        -0.11845
C         -5.18404       -10.07894        -0.13816
C         -3.89840        -9.54354         0.38079
C         -2.67130       -10.27695        -0.10121
C         -1.36880       -10.09203         0.10779
C         -0.04803       -10.31645         0.19182
C          1.03822        -9.51700        -0.42461
C          2.35247        -9.85694        -0.33040
C          3.50612        -8.95509        -0.75005
C          4.76669        -9.68341        -1.18340
C          5.94849        -9.03785        -1.31448
O         -5.88121         4.01600        -2.84499
O          0.61999        -7.81885        -2.11045
O          1.40998         7.17265        -0.43980
O          4.23778         7.48226        -0.80998
O         -4.78797        -1.26037         1.73595
O          5.01173        -8.14991         1.20858
O         -2.02821        -7.79390        -1.27555
O          5.53505        -3.09276        -1.57728
O         -2.27890         2.81836        -1.35308
O         -3.45278        -5.35240         2.05291
O          7.47484        -5.35924         0.80810
O         -2.05484         5.37055        -1.64119
O          2.50516        -7.40490         2.21977
O          8.32697        -0.60475        -1.36049
O         -1.06028         3.23011         2.20132
O         -6.09725        -4.63870        -1.64911
O         -4.01010        -9.20709         1.81541
O         -2.72074         7.72524         1.28489
O          9.79383         1.46023         0.81494
O         -0.99478        -5.26452        -0.72104
O          6.10325         3.06810         2.55042
O         -8.45690        -3.47304        -1.22207
O          0.21846        -3.15698        -0.77203
O         -7.39352         1.90528        -2.48627
O         -5.31954         2.56787         0.58246
O          1.36186        -0.95551        -0.88821
O          3.82020        -0.59886        -1.61838
O         -1.23761        -3.69058         2.60888
O          0.34204         5.40257         2.39419
O         -9.01715        -0.14710        -1.98363
O          7.87004        -3.45445        -1.91571
O         -3.43630         7.78916        -2.39985
O          8.41120         3.33927         1.81721
H          7.84576         3.02820         2.58427
O         -4.32917        -2.52026        -1.63881
H         -4.45135        -3.29507        -2.22841
O         -2.47006        -1.40349         2.54459
H         -2.25344        -2.31538         2.89328
O         -3.69415        10.25708        -1.85463
H         -4.34135         9.84236        -2.48566
O          7.03406         5.60243         1.97583
H          7.74236         4.90679         2.10330
O         -0.33750         7.97575         2.69510
H         -1.22247         7.77769         3.07018
O          3.13472        -8.10486        -1.85654
H          2.67422        -8.63181        -2.54349
O          6.58140         8.23672         1.90805
H          6.82466         7.37156         2.31319
O          3.14589        -3.76178        -1.65669
H          3.91887        -3.64624        -2.25730
O         -2.04825        -7.72437         2.30695
H         -2.61344        -7.27214         2.97191
O         -1.36689        -0.97258        -0.87617
H         -0.47746        -0.88555        -1.29055
O        -10.85849        -1.77524        -1.27198
H        -10.59810        -1.16468        -2.00295
O         -5.75500         8.80095        -3.04324
H         -5.47385         8.23743        -3.79511
O          6.16373         0.47745         2.03068
H          6.09198         1.39134         2.46535
O         -1.13326         9.38089        -1.38788
H         -1.85802         9.84830        -1.87157
O          4.92249        -1.66427         1.66087
H          5.09139        -0.82190         2.16032
O          5.16660        -5.64215         1.97676
H          5.12923        -6.56921         2.31432
O          0.14395        -1.51121         2.50750
H         -0.39228        -2.29396         2.86091
O          2.70989        -2.95854         1.84728
H          1.99848        -2.46354         2.31919
O         -4.07621         5.49771        -3.20376
H         -3.13258         5.77143        -3.27217
O          5.80439        -0.16958        -1.57576
H          5.95965        -0.93308        -2.17924
O          3.13517         6.03904         2.68238
H          2.41206         6.03597         3.34556
O          0.31404        -7.96656         1.38901
H         -0.33310        -7.77665         2.11100
O         -6.58352         6.20491         0.09560
H         -6.87154         5.53654         0.75285
O         -5.43473         0.12538        -2.15733
H         -5.88443         0.63362        -2.87194
O          6.08429         5.73761        -1.52759
H          6.17300         4.89239        -2.00927
O         10.49968        -1.04078         1.60631
H         11.43367        -1.31884         1.69435
O          3.20831         5.14038        -0.88600
H          3.47126         6.02465        -1.25127
O         -5.53259        -6.91861         2.20207
H         -5.44260        -7.74251         2.72875
O         -4.43396        -6.42690        -1.20272
H         -4.72187        -5.81794        -1.92375
O          1.54352         0.67023         2.47435
H          0.85409         0.11070         2.90903
O         -6.84981        -0.06480         1.19237
H         -6.19778        -0.24380         1.91949
H         11.75954        -1.16179        -1.25534
H         11.70953         1.11767        -1.89984
H          9.81793         3.17434        -2.09227
H          9.06826         5.25586        -1.73527
H          8.34130         7.28970         0.40448
H          6.88587         9.96147        -0.34357
H          4.76347        11.11558        -0.12956
H          2.40320        11.17804         0.60658
H          0.00858        11.26824         0.47062
H         -2.97841        10.37018         1.32127
H         -5.42301        10.24029         0.74759
H         -7.20316         8.95153        -0.31975
H         -7.40930         6.85023        -3.14027
H         -9.17266         5.60961        -0.72598
H        -10.37629         3.58352        -0.00818
H        -11.45644         1.57786         0.96852
H        -11.64115        -0.80487         1.25022
H        -10.29005        -2.92181         1.57482
H         -9.58068        -5.76617         0.81497
H         -8.48658        -7.76018        -0.15741
H         -7.26079        -9.82495        -0.49710
H         -5.19331       -11.11112        -0.51995
H         -2.91848       -11.02326        -0.88568
H          0.28488       -11.08670         0.91503
H          2.62461       -10.81171         0.15031
H          4.67988       -10.72738        -1.52151
H          6.81077        -9.56812        -1.74798
H          8.06062        -7.40375        -1.82164
H          9.38651        -5.00279        -1.78290
H         10.99363        -3.25941        -0.17698
