         240
 CSIRO Nanostructure Databank - Neutral Graphene Oxide Data Set
C        -11.17604         0.74220         0.21287
C        -10.09535         1.51397        -0.51997
C         -8.84119         0.67978        -0.89938
C         -7.49346         1.47264        -1.20904
C         -6.14064         0.68466        -1.15428
C         -4.96232         1.34041        -0.87053
C         -3.68259         0.60360        -0.73034
C         -2.36357         1.32852        -0.81848
C         -1.33771         0.68963        -1.74353
C          0.06785         1.47916        -1.76297
C          1.16039         0.72236        -0.97693
C          2.57696         1.39995        -1.34304
C          3.52793         0.60821        -0.48729
C          5.42211         1.67715        -1.30779
C          6.32272         0.77891        -0.54351
C          7.11525         1.32025         0.43144
C          8.00264         0.46834         1.18100
C          9.85197         1.57109         1.63370
C         10.95214         0.62067         1.65660
C         -9.80692         2.76831         0.23289
C         -8.57884         3.37364         0.24786
C         -7.38175         2.73883        -0.32681
C         -6.18051         3.36318        -0.14559
C         -4.94342         2.84897        -0.84248
C         -3.63179         3.48739        -0.41153
C         -2.36375         2.79768        -0.66975
C         -1.13978         3.57790        -0.93330
C          0.03684         2.92021        -1.24953
C          1.30670         3.60937        -1.10172
C          2.52508         2.92160        -1.14995
C          3.72084         3.61914        -0.54067
C          5.08137         2.96089        -0.60855
C          6.11171         3.58207         0.03403
C          7.13306         2.79444         0.81582
C          8.48531         3.51657         0.91163
C          9.75527         2.79851         1.04444
C         -8.50524         4.70292         0.79155
C         -7.30774         5.39688         0.89210
C         -6.07053         4.64197         0.60305
C         -4.77795         5.42129         0.56666
C         -3.58267         4.81510        -0.06072
C         -2.36621         5.58828        -0.16087
C         -1.17498         4.97999        -0.61546
C          0.05226         5.72029        -0.70318
C          1.25537         5.04892        -0.85181
C          2.51941         5.83892        -0.89835
C          3.79838         5.12181        -0.68403
C          4.88862         5.76538        -0.17663
C          6.22675         5.07900        -0.07812
C          7.27123         5.69332         0.82156
C          8.46939         4.88396         0.99558
C         -7.22535         6.75193         1.28483
C         -6.01912         7.48855         1.22145
C         -4.80886         6.87136         0.79654
C         -3.62566         7.62003         0.61987
C         -2.40731         7.00097         0.15584
C         -1.26060         7.78967        -0.01063
C         -0.02040         7.23895        -0.67883
C          1.23427         7.83263        -0.00788
C          2.49606         7.31853        -0.67207
C          3.80954         8.07563        -0.42507
C          4.80496         7.17589         0.28331
C          5.95803         7.79459         1.00614
C          7.18607         6.99103         1.21822
C         -6.00097         8.89457         1.51280
C         -4.85623         9.63048         1.36156
C         -3.63876         9.02504         0.90576
C         -2.45798         9.77525         0.76469
C         -1.26772         9.17384         0.32016
C         -0.03652         9.94050         0.28557
C          1.18451         9.33878         0.13052
C          2.43150        10.02059         0.39144
C          3.64549         9.39450         0.30172
C          4.87949        10.00701         0.76992
C          5.98550         9.27545         1.05732
C        -11.11528        -0.54862         0.59230
C         -9.94584        -1.35850         0.31273
C         -8.95496        -0.82094        -0.64579
C         -7.82946        -1.72094        -0.91504
C         -6.02269        -0.71835        -1.51933
C         -4.92047        -1.51359        -1.33444
C         -3.64465        -0.87228        -0.98335
C         -2.37969        -1.54858        -1.36910
C         -1.22103        -0.82337        -1.46602
C          0.08274        -1.47862        -1.51994
C          1.24038        -0.75962        -1.29846
C          2.55874        -1.43698        -1.41492
C          3.82116        -0.77201        -0.92366
C          5.03543        -1.42417        -0.91200
C          6.40494        -0.67637        -0.98263
C          7.55245        -1.44199        -0.28027
C          8.35640        -0.78142         0.77841
C          9.54574        -1.47093         1.29629
C         10.76919        -0.73016         1.61665
C         -9.67584        -2.52982         0.97311
C         -8.45819        -3.30083         0.79746
C         -7.47778        -2.81419        -0.17614
C         -6.22719        -3.58807        -0.43858
C         -4.98024        -2.97354        -1.10789
C         -3.65828        -3.67309        -0.99054
C         -2.49023        -3.01637        -1.77505
C         -1.11525        -3.67096        -1.65529
C          0.08888        -2.93680        -1.55152
C          1.29135        -3.66279        -1.35803
C          2.57055        -2.94439        -1.49097
C          3.85325        -3.70641        -1.31760
C          5.12592        -2.89548        -1.21690
C          6.38107        -3.66924        -0.84916
C          7.55881        -2.94038        -0.24792
C          8.31560        -3.61612         0.89239
C          9.54507        -2.83648         1.28720
C         -8.31685        -4.53290         1.40757
C         -7.12467        -5.33008         1.22395
C         -5.93283        -4.54114         0.71587
C         -4.66200        -5.36700         0.57670
C         -3.63954        -4.91794        -0.40410
C         -2.76278        -5.97580        -0.85999
C         -0.99813        -5.06077        -1.69716
C          0.09274        -5.78274        -1.14988
C          1.27556        -5.03096        -1.00568
C          2.46514        -5.58569        -0.26479
C          3.79847        -5.13137        -0.85779
C          5.03576        -5.84592        -0.43474
C          6.33569        -5.17159        -0.62324
C          7.54938        -5.86709         0.03018
C          8.61852        -5.05554         0.60589
C         -7.02295        -6.62774         1.63608
C         -5.86172        -7.50852         1.23881
C         -4.54333        -6.75415         1.13418
C         -3.25000        -7.58665         0.97068
C         -2.49712        -7.15979        -0.26503
C         -1.30210        -7.94594        -0.70269
C          0.00764        -7.20835        -0.78336
C          1.15273        -7.85918        -0.36225
C          2.39020        -7.09769        -0.03627
C          3.67043        -7.84812         0.16459
C          4.97386        -7.15462        -0.01464
C          6.16791        -7.89979         0.35592
C          7.36535        -7.24416         0.50680
C         -5.70358        -8.80868         1.98899
C         -4.61394        -9.57490         1.76543
C         -3.47087        -9.08990         0.99038
C         -2.51550        -9.90270         0.47483
C         -1.30440        -9.37685        -0.22488
C         -0.00535       -10.00436         0.03392
C          1.16830        -9.29181        -0.06938
C          2.43616        -9.97590         0.11641
C          3.64368        -9.33124         0.14575
C          4.89306       -10.01451         0.39673
C          6.05649        -9.33204         0.57944
O          2.41952        -4.92541         1.03571
H          2.60025        -5.62699         1.70998
O         -2.88445        -3.01780        -3.16803
H         -2.95578        -3.95510        -3.45088
O          3.85936        -4.81184        -2.28110
O          5.15444         1.55781        -2.49899
O         -1.87550         0.77529        -3.02484
O          7.35923        -3.56814         2.02638
H          7.78321        -4.01658         2.78915
O          0.92203         0.90394         0.42317
H          0.00254         1.24798         0.56811
O         -3.65821        -0.33879         0.40227
O          6.69040        -0.63312        -2.38311
H          6.86097        -1.56109        -2.68017
O         -2.13885        -5.75389        -2.10242
O         -2.40228        -7.33944         2.12261
H         -2.64364        -6.44572         2.46481
O         -5.66585        -3.56951         1.77639
H         -5.24521        -4.06371         2.51675
O         -7.14212        -1.36018        -2.07416
O          8.67744         1.07332         2.26096
O         -7.62277         1.94738        -2.56857
H         -7.93032         1.18936        -3.11365
O          2.87233         1.03796        -2.67941
H          2.12030         1.32705        -3.26042
O          6.12039        -3.26742        -2.22164
O          2.44381         6.82137        -2.04245
O          3.72832         0.87800         0.76942
H          3.43104         1.81364         1.02203
O         -6.11091        -7.88272        -0.16250
H         -6.92495        -8.42793        -0.19106
O          6.82515         5.24576        -1.41624
H          6.22990         4.82877        -2.07643
O          6.57603         2.83231         2.17594
H          7.22644         2.35445         2.74514
O          3.40100         3.46939         0.94193
H          4.09916         3.93508         1.45827
O          0.42182         1.57054        -3.14661
H         -0.42392         1.28252        -3.62631
O         -0.09458         7.69554        -2.05086
H          0.70272         7.34807        -2.51817
O         -1.93281         1.80999         0.47812
O         -1.53019        -9.02599        -1.65571
O         -5.06923         3.28194        -2.24043
H         -5.90632         2.89321        -2.59897
O         -4.23643        -5.62747         1.99670
O          2.68226        -2.12008        -2.69932
O          1.31152         7.29904         1.34296
H          0.59906         7.70970         1.87675
O        -10.69451         1.95127        -1.77534
H        -10.70303         1.16046        -2.36177
O          4.39799         8.41294        -1.70414
H          3.92626         7.88355        -2.39062
O          2.87130        -7.38196         1.33497
O          8.38134        -2.23383        -1.20176
O         -5.16440         4.61664         1.75844
O         -5.92196        -3.87386        -1.81463
O         -9.34761        -0.20940        -1.94083
O          7.32391        -5.82918        -1.45412
O          4.77643         7.23583         1.74326
H         11.66869        -1.36055         1.71011
H         11.97955         1.01276         1.71657
H         10.65729         3.27848         0.63625
H          9.40838         5.41252         1.22526
H          8.01849         7.45271         1.77235
H          6.90614         9.76892         1.40240
H          4.88984        11.09722         0.92432
H          2.38015        11.04350         0.79852
H         -0.09356        11.02112         0.48783
H         -2.46346        10.84666         1.01435
H         -4.85553        10.70709         1.58588
H         -6.92941         9.37513         1.85361
H         -8.15105         7.27601         1.56658
H         -9.44782         5.19494         1.07443
H        -10.66934         3.30392         0.65756
H        -12.07999         1.32721         0.44203
H        -11.94335        -1.00442         1.15606
H        -10.40947        -2.90349         1.70410
H         -9.14670        -4.94160         2.00402
H         -7.90416        -7.11725         2.08349
H         -6.54035        -9.18657         2.59642
H         -4.55131       -10.58676         2.19664
H         -2.61250       -10.99683         0.57097
H          0.02370       -11.05321         0.36756
H          2.40703       -11.07118         0.22284
H          4.87277       -11.10937         0.50117
H          6.97855        -9.87878         0.82580
H          8.23287        -7.77106         0.93223
H          9.22804        -5.56501         1.37335
H         10.43756        -3.39250         1.61369
