         620
 CSIRO Nanostructure Databank - Neutral Graphene Oxide Data Set
C         22.97689        27.40160         1.43643
C         23.01416        28.75614         1.38776
C         23.00079        31.67007         1.23449
C         23.00321        33.00428         0.90797
C         23.14361        35.51773        -0.54447
C         23.28868        36.62153        -1.35945
C         23.27281        40.23698        -2.06655
C         23.14737        41.58281        -1.74209
C         22.98779        44.46024        -1.07839
C         22.94684        45.82769        -0.91149
C         25.38603        24.62263         1.20328
C         24.24191        25.18905         1.61014
C         25.43883        27.40217         2.07778
C         24.15047        26.64675         1.88910
C         25.45720        28.85739         1.80114
C         24.22836        29.52244         1.59190
C         25.44680        31.66401         1.37412
C         24.21772        30.94515         1.40351
C         25.44036        33.06606         1.07702
C         24.22393        33.72203         0.75845
C         25.46568        35.81851         0.23326
C         24.26145        35.04503         0.18684
C         25.54936        37.10291        -0.44242
C         24.49564        37.34517        -1.34351
C         25.55531        40.15246        -1.11605
C         24.46915        39.56093        -1.79179
C         25.46824        41.57138        -1.02205
C         24.27751        42.29677        -1.29039
C         25.40709        44.50291        -0.94262
C         24.22759        43.75881        -1.11273
C         25.39227        45.91094        -0.70878
C         24.13741        46.58607        -0.72785
C         25.27049        48.70903        -0.37022
C         24.10528        47.99835        -0.57193
C         27.93990        23.27315         0.59218
C         27.93306        24.62623         0.96883
C         26.64313        25.44371         0.97113
C         27.94721        27.42805         1.77986
C         26.72372        26.57784         2.02449
C         27.94178        28.79721         1.80698
C         26.69315        29.56019         1.76443
C         27.90475        31.72937         1.48295
C         26.68886        30.97378         1.57070
C         27.90554        33.10892         1.23126
C         26.65913        33.82118         1.05619
C         27.82922        36.03214         0.98216
C         26.62027        35.21066         0.80504
C         27.75116        37.53970         0.70721
C         26.67360        38.02513        -0.25972
C         27.90701        40.19941        -0.21155
C         26.70979        39.39928        -0.57118
C         27.94485        41.62356        -0.51827
C         26.73878        42.30337        -0.99635
C         27.93065        44.56284        -0.75128
C         26.70490        43.82796        -1.06112
C         27.89218        45.97983        -0.48236
C         26.59889        46.65669        -0.46353
C         27.73197        48.81868         0.13811
C         26.52667        48.05343        -0.28255
C         27.87413        50.26360        -0.09367
C         30.37238        23.15365         0.76281
C         29.12703        22.54500         0.53417
C         30.39853        24.54813         1.10014
C         29.16504        25.24801         1.26515
C         30.51867        27.39826         1.58595
C         29.20491        26.64785         1.74294
C         30.49147        28.85936         1.47085
C         29.23496        29.53658         1.84229
C         30.42400        31.71453         1.22418
C         29.19678        31.04832         1.68882
C         30.37327        33.14560         1.09765
C         29.16164        33.81565         1.12277
C         30.35440        35.99244         0.54244
C         29.13722        35.29938         1.10968
C         30.29942        37.49305         0.72158
C         29.12065        38.16705         0.48928
C         30.29977        40.39298         0.53662
C         29.07487        39.59799         0.27935
C         30.33515        41.82194         0.10080
C         29.10014        42.39829        -0.45331
C         30.38779        44.52140        -0.77871
C         29.10888        43.81991        -0.68073
C         30.37350        46.08107        -0.55539
C         29.07548        46.67454        -0.22327
C         30.32725        48.83063         0.28259
C         29.06320        48.06181         0.26572
C         30.33206        50.21459         0.24725
C         29.07034        50.89984         0.00699
C         32.87666        20.31912         0.28655
C         31.66067        21.03343         0.53576
C         32.85292        23.20718         0.25032
C         31.60869        22.40524         0.56188
C         32.92719        24.45323         1.15665
C         31.65319        25.25392         1.13561
C         32.89896        27.38500         0.86158
C         31.71172        26.65408         1.15453
C         32.87059        28.82385         0.76987
C         31.63001        29.55613         1.07582
C         32.76653        31.73979         0.45096
C         31.58976        30.99716         0.96980
C         32.88274        33.17146         0.74867
C         31.67407        33.87969         1.30632
C         32.85419        35.99862         0.87023
C         31.65340        35.32979         0.91148
C         32.86427        37.46421         1.06373
C         31.56315        38.20685         1.02167
C         32.90064        40.32975         0.45799
C         31.60747        39.70339         0.83163
C         32.87099        41.62802        -0.32276
C         31.63269        42.47934        -0.16146
C         32.90995        44.52080        -0.68926
C         31.64295        43.79023        -0.54881
C         32.87782        46.03867        -0.36972
C         31.61084        46.69170        -0.08381
C         32.86897        48.78417         0.73251
C         31.57409        48.04627         0.48273
C         32.85019        50.28655         0.67360
C         31.58849        50.97384         0.32850
C         32.88374        53.03437        -0.09168
C         31.66054        52.33437         0.07167
C         35.44626        18.74499        -0.07513
C         35.37280        20.24313        -0.23944
C         34.08738        20.96342         0.15507
C         35.35079        23.08956         0.30106
C         34.14286        22.40433         0.27661
C         35.44116        24.50116         0.84873
C         34.14951        25.26171         0.81912
C         35.34744        27.34545         0.32940
C         34.12880        26.63993         0.66563
C         35.24007        28.76867         0.00949
C         34.01971        29.50839         0.36165
C         35.31961        31.71282         0.15053
C         34.03541        30.96616         0.11643
C         35.32403        33.11783         0.36045
C         34.08940        33.85124         0.63112
C         35.32716        36.02181         0.71565
C         34.11518        35.29433         0.80672
C         35.38750        37.43714         0.64730
C         34.16562        38.22324         0.93527
C         35.36064        40.29816         0.17743
C         34.10052        39.65265         0.53633
C         35.37387        41.69935        -0.08541
C         34.14999        42.41875        -0.21019
C         35.39728        44.52157        -0.49997
C         34.16168        43.79279        -0.42822
C         35.40750        45.96622        -0.36065
C         34.16437        46.61966         0.11131
C         35.42552        48.83140         0.25013
C         34.19033        48.07056         0.55049
C         35.41560        50.23944         0.17727
C         34.17945        51.01898         0.43566
C         35.36870        53.08238        -0.36913
C         34.12671        52.41360        -0.04792
C         35.38110        54.49618        -0.72124
C         37.90260        18.67965         0.60788
C         36.59250        18.07553         0.12396
C         37.90142        20.21259         0.49425
C         36.59182        20.94336         0.31812
C         37.82070        23.09229         0.14364
C         36.60691        22.40719         0.16026
C         37.81031        24.53841         0.14057
C         36.64660        25.25220         0.35275
C         37.80280        27.44277         0.05567
C         36.58694        26.68988         0.23868
C         37.80999        28.82418        -0.08346
C         36.54617        29.56324        -0.21293
C         37.78993        31.69374         0.08599
C         36.54511        31.01821         0.03370
C         37.79162        33.12103         0.22852
C         36.56573        33.80273         0.41672
C         37.88481        36.00646         0.50765
C         36.58468        35.24645         0.71564
C         37.82519        37.45397         0.25242
C         36.59883        38.14467         0.37460
C         37.81145        40.26893        -0.11173
C         36.57903        39.57941         0.16892
C         37.81908        41.65845        -0.35282
C         36.60749        42.38496        -0.32147
C         37.84842        44.50908        -0.81963
C         36.59478        43.79726        -0.54935
C         37.84405        46.02711        -0.70967
C         36.58954        46.68724        -0.31200
C         37.83141        48.82195        -0.24296
C         36.61449        48.10946        -0.04670
C         37.79948        50.21940        -0.36275
C         36.59559        50.93955        -0.19480
C         37.83888        53.08048        -0.60867
C         36.58403        52.38380        -0.36995
C         37.87680        54.60222        -0.55276
C         36.52392        55.19479        -0.86760
C         40.53312        15.97198         0.12929
C         39.29892        16.64402         0.33459
C         40.28996        18.74570        -0.47877
C         39.15232        17.98723         0.09164
C         40.24891        20.24661        -0.52115
C         39.09747        20.97662         0.06609
C         40.23447        23.07147        -0.61116
C         39.05448        22.34893        -0.05991
C         40.26118        24.56743        -0.55788
C         39.10151        25.24841         0.08097
C         40.32869        27.45307        -0.28214
C         39.09833        26.74103         0.11069
C         40.31040        28.83964        -0.26059
C         39.05068        29.56267        -0.10213
C         40.32352        31.70326         0.10024
C         39.02429        30.95218        -0.03931
C         40.20431        33.11179        -0.43365
C         39.01466        33.86627         0.01757
C         40.27453        35.98635        -0.20731
C         39.05644        35.25048         0.03441
C         40.27831        37.40083        -0.08901
C         39.04069        38.13945        -0.00726
C         40.30949        40.25022        -0.23345
C         39.05421        39.54533        -0.14392
C         40.34432        41.64200        -0.42021
C         39.08152        42.32443        -0.85683
C         40.31699        44.50930        -0.53151
C         39.12426        43.81092        -0.64212
C         40.32593        45.96203        -0.42899
C         39.12720        46.69169        -0.45085
C         40.31937        48.80575        -0.29058
C         39.11103        48.11152        -0.32364
C         40.29547        50.31391        -0.18579
C         39.05093        50.89345        -0.86431
C         40.28233        53.08943        -1.01453
C         39.02067        52.39751        -0.77349
C         40.30816        54.45136        -1.28438
C         38.98587        55.18239        -1.45760
C         40.32271        57.29584        -1.37031
C         39.12929        56.67650        -1.30274
C         42.95936        16.02332        -0.29725
C         41.68473        16.67299        -0.23347
C         42.77581        18.78988        -0.84183
C         41.62127        18.08097        -0.53087
C         42.67704        20.21448        -1.33583
C         41.51835        20.98993        -0.75416
C         42.72911        23.12562        -1.10022
C         41.52011        22.35870        -0.79740
C         42.73342        24.57300        -0.99241
C         41.54449        25.29832        -0.65737
C         42.76742        27.43000        -0.69664
C         41.54249        26.70294        -0.53160
C         42.77027        28.84659        -0.65400
C         41.54326        29.57423        -0.44925
C         42.75757        31.69986        -0.60890
C         41.54155        30.96557        -0.39836
C         42.74199        33.09371        -0.72646
C         41.47557        33.85480        -0.75030
C         42.70954        35.99790        -0.37831
C         41.49375        35.30924        -0.49268
C         42.73288        37.37875        -0.04791
C         41.51103        38.10738        -0.05524
C         42.78492        40.22049        -0.09167
C         41.53914        39.53440        -0.08237
C         42.80978        41.65277        -0.29366
C         41.57057        42.35980        -0.41517
C         42.79813        44.51302        -0.43631
C         41.57953        43.79348        -0.48354
C         42.79276        45.94115        -0.31110
C         41.57512        46.65793        -0.29040
C         42.76548        48.82141        -0.50201
C         41.56454        48.10137        -0.29511
C         42.70630        50.19203        -0.91064
C         41.52567        50.94897        -0.78187
C         42.71662        52.96572        -1.51111
C         41.50983        52.32599        -1.08315
C         42.79596        54.41461        -1.51989
C         41.56320        55.13811        -1.45661
C         42.79601        57.24476        -1.51702
C         41.57473        56.56291        -1.47573
C         44.09249        16.72509        -0.60449
C         45.22414        18.85320        -1.25195
C         44.05169        18.12832        -0.90123
C         45.18901        20.29053        -1.41433
C         43.97088        20.98700        -1.28700
C         45.16265        23.12580        -1.70147
C         43.92172        22.40855        -1.34967
C         45.17701        24.64223        -1.57159
C         43.94365        25.30855        -1.12403
C         45.22831        27.42277        -1.00205
C         43.98337        26.71223        -0.93000
C         45.23844        28.83751        -0.89089
C         44.00196        29.55788        -0.76614
C         45.24054        31.68125        -0.79400
C         44.00346        30.97601        -0.74320
C         45.25923        33.10046        -0.79027
C         43.98874        33.81384        -0.94653
C         45.22904        35.94823        -0.27448
C         43.98259        35.34268        -0.73606
C         45.18064        37.24255         0.31746
C         43.96842        38.06173         0.19974
C         45.26453        40.19532         0.06172
C         43.97754        39.46981         0.16102
C         45.29713        41.66963        -0.40408
C         44.02235        42.38984        -0.40786
C         45.30570        44.52983        -0.51054
C         44.05280        43.80647        -0.44153
C         45.33463        45.94733        -0.51221
C         44.07412        46.64050        -0.19944
C         45.27945        48.79726        -0.96829
C         44.07597        48.18358        -0.36510
C         45.05590        49.97928        -1.66146
C         43.85396        50.76706        -1.53385
C         45.68244        53.24590        -1.63777
C         43.78781        52.12850        -1.89529
C         45.32599        54.48659        -1.11186
C         44.03281        55.13662        -1.42651
C         43.99920        56.53998        -1.44750
C         47.61143        18.80707        -1.82788
C         46.48054        18.17043        -1.42512
C         47.61504        20.25336        -2.04681
C         46.41615        21.00932        -1.67877
C         47.68887        23.15049        -1.69400
C         46.45249        22.40897        -1.70663
C         47.68673        24.58459        -1.46366
C         46.47520        25.31375        -1.37408
C         47.71115        27.41595        -1.06639
C         46.47198        26.71042        -1.13692
C         47.72001        28.84276        -0.95528
C         46.47717        29.55085        -0.89943
C         47.71030        31.69089        -0.77611
C         46.47984        30.96949        -0.82400
C         47.71201        33.10725        -0.63914
C         46.46398        33.81403        -0.65295
C         47.66202        35.84401         0.05456
C         46.44335        35.21911        -0.33763
C         47.61410        37.08640         0.74554
C         46.34234        37.68390         0.96856
C         47.66545        40.42666         0.66039
C         46.42332        39.81712         0.83612
C         47.73715        41.72967         0.04908
C         46.54348        42.41734        -0.23137
C         47.80049        44.49518        -0.46290
C         46.55627        43.81816        -0.42616
C         47.79248        45.92214        -0.80833
C         46.53938        46.68790        -0.69546
C         47.84127        48.81953        -0.84360
C         46.57836        48.11082        -0.88205
C         47.88933        50.28916        -0.85637
C         46.94212        51.10179        -1.48052
C         47.66234        53.07663        -0.20641
C         46.78382        52.48342        -1.16116
C         47.36774        54.39337         0.24136
C         46.22734        55.06201        -0.17244
C         50.23293        20.32958        -1.91858
C         48.97267        21.04984        -2.09567
C         50.16316        23.14041        -1.44492
C         48.92828        22.47018        -1.72914
C         50.16723        24.56039        -1.25363
C         48.92701        25.27497        -1.27781
C         50.17559        27.39636        -0.96909
C         48.93635        26.69327        -1.10832
C         50.18368        28.81963        -0.90039
C         48.94883        29.55077        -0.91392
C         50.16533        31.71261        -0.76322
C         48.95194        30.98548        -0.81514
C         50.18333        33.11462        -0.54231
C         48.94053        33.80924        -0.46106
C         50.13105        35.89584         0.17351
C         48.92231        35.19252        -0.09736
C         50.09770        37.23957         0.68311
C         48.84161        37.68356         1.14160
C         50.12324        40.29293         0.74766
C         48.86452        39.83367         1.14361
C         50.17872        41.67240         0.33232
C         48.99010        42.40555         0.03990
C         50.27433        44.51646        -0.08271
C         49.02387        43.80891        -0.23423
C         50.31320        45.94062        -0.17341
C         49.13693        46.68567        -0.65691
C         50.25935        48.81663        -0.11613
C         49.05832        48.14304        -0.49985
C         50.32172        50.32607        -0.32943
C         48.96776        50.98941        -0.22154
C         49.89644        52.93375         0.95446
C         48.83719        52.32760         0.16108
C         51.36422        20.98608        -1.55896
C         52.62216        23.10900        -1.17023
C         51.38913        22.41724        -1.38047
C         52.63042        24.52946        -1.02238
C         51.39760        25.24934        -1.05187
C         52.63027        27.37694        -0.71709
C         51.40937        26.67998        -0.91584
C         52.63543        28.80599        -0.68246
C         51.42324        29.51046        -0.83379
C         52.72382        31.72067        -0.64542
C         51.42677        30.97829        -0.93252
C         52.65804        33.14663        -0.24449
C         51.41178        33.83658        -0.29524
C         52.58831        35.94023         0.34171
C         51.38471        35.22075         0.04902
C         52.56249        37.34494         0.63200
C         51.30888        38.03966         0.77809
C         52.55427        40.18712         0.90962
C         51.31439        39.47198         0.85217
C         52.55246        41.60606         0.83858
C         51.41293        42.35903         0.43519
C         52.64700        44.50527         0.61319
C         51.44397        43.79146         0.30311
C         52.67026        45.93590         0.56054
C         51.47641        46.66578         0.17933
C         52.71680        48.84057         0.41054
C         51.44456        48.10445         0.15543
C         52.67097        50.30074         0.78126
C         51.42422        51.06293         0.44178
C         51.08010        52.31768         1.14889
C         55.05868        23.09208        -0.97015
C         53.87361        22.42041        -1.12748
C         55.10036        24.51240        -0.82917
C         53.87096        25.22678        -0.84088
C         55.08676        27.31831        -0.38638
C         53.87631        26.64777        -0.63904
C         55.05742        28.74021         0.11905
C         53.85925        29.52514        -0.37916
C         55.09079        31.58798         0.22576
C         53.87829        30.89333        -0.26525
C         55.07317        33.07743         0.35850
C         53.82135        33.82556         0.12640
C         55.06723        35.92958         0.53229
C         53.83080        35.23709         0.33840
C         55.05219        37.33699         0.73169
C         53.80101        38.03994         0.79495
C         55.02816        40.13564         1.18211
C         53.80096        39.45716         1.00447
C         55.02557        41.56518         1.50706
C         53.72472        42.35081         1.28026
C         55.00698        44.46469         1.35289
C         53.80193        43.79768         1.05193
C         55.01908        45.89322         1.33797
C         53.85551        46.60073         0.94893
C         54.99061        48.74209         1.64839
C         53.93245        48.06944         0.86339
C         54.76672        50.07754         2.09968
C         53.64415        50.78786         1.78014
C         57.60220        24.55002        -0.75600
C         56.34283        25.22079        -0.68816
C         57.57113        27.34696        -0.34542
C         56.32612        26.62933        -0.46019
C         57.58775        28.77620        -0.19689
C         56.36254        29.48586        -0.07110
C         57.59358        31.60698         0.00411
C         56.37777        30.87553         0.03672
C         57.56400        33.08685        -0.03849
C         56.33409        33.83046         0.27095
C         57.57696        35.94689         0.54466
C         56.32643        35.21504         0.41759
C         57.54472        37.35020         0.81760
C         56.29031        38.05246         0.87420
C         57.51047        40.18596         1.27909
C         56.27601        39.45605         1.09748
C         57.50731        41.61248         1.46589
C         56.27619        42.32629         1.48800
C         57.45683        44.45203         1.78082
C         56.23789        43.73254         1.56744
C         57.41701        45.87475         1.94539
C         56.21054        46.59891         1.72312
C         57.35891        48.66416         2.41976
C         56.17351        48.01482         1.94302
C         58.78584        25.23510        -0.63497
C         60.02529        27.37236        -0.38544
C         58.79582        26.64933        -0.44580
C         60.03941        28.73843        -0.25381
C         58.82470        29.48691        -0.15944
C         60.04770        31.66657         0.17522
C         58.82269        30.91964        -0.03947
C         60.07898        33.01518         0.32436
C         58.88780        33.84606         0.08637
C         60.00446        35.97836         0.77740
C         58.81986        35.26812         0.49945
C         59.97814        37.33776         1.03448
C         58.76232        38.05865         1.03825
C         59.94586        40.22775         1.44892
C         58.74306        39.49095         1.26171
C         59.93958        41.59139         1.64729
C         58.72537        42.32654         1.66105
C         59.86506        44.49070         2.21550
C         58.69159        43.75311         1.88501
C         59.81659        45.84841         2.45502
C         58.60113        46.56977         2.32523
C         58.53436        47.97326         2.57678
O         39.87622        23.88425        -1.79779
O         40.55811        33.36310        -1.81556
O         52.27087        31.49727        -2.02485
O         33.63189        37.85159         2.25196
O         46.09089        50.52128        -2.43690
O         28.50936        35.85273         2.29356
O         48.23144        20.68870        -3.29661
O         46.25324        38.82162         1.80630
O         58.26691        33.61934        -1.22116
O         30.11792        41.47489         1.52702
O         52.63103        51.20778        -0.39462
O         24.63576        38.29316        -2.36305
O         39.88076        19.45525        -1.73976
O         33.60716        50.86767         1.77914
O         53.78933        48.55100        -0.54295
O         48.79499        38.76061         2.04368
O         30.43383        45.46162        -1.88138
O         54.96384        32.18411         1.57619
O         45.49857        40.56375        -1.34271
O         54.15840        41.93902         2.62763
O         33.10875        31.39853        -0.94325
O         48.62809        46.23931        -1.95830
O         28.22382        48.34198         1.43255
O         44.23775        47.54723         0.94059
O         43.98358        34.76554        -2.07235
O         37.44813        35.60252         1.85360
O         37.12768        20.69171         1.65861
O         45.02192        23.99566        -2.88166
O         33.01002        45.51150        -1.74323
O         44.85045        52.68747        -2.62365
O         30.05985        26.89311         2.90241
O         34.29478        46.97991         1.51954
O         24.61176        27.03958         3.24045
O         35.72760        29.12759        -1.33909
O         39.37644        25.94106         1.34197
O         26.88409        43.01948        -2.28014
O         37.78908        45.36554        -2.01887
O         32.11801        48.24161         1.85732
O         31.49694        39.11783         2.16735
O         29.34169        30.41651         3.00954
O         38.21018        54.98961         0.80751
H         37.55247        54.58122         1.40836
O         26.92628        25.93626         3.29860
H         26.14589        26.15938         3.86030
O         27.32604        38.12901         1.97651
H         27.87096        37.70492         2.67942
O         33.05926        23.93026         2.52572
H         32.77045        24.63431         3.14561
O         31.83273        33.87853         2.77590
H         32.56239        34.49590         2.99977
O         50.62438        50.46352        -1.74879
H         51.59746        50.62788        -1.81205
O         42.36203        20.10063        -2.77146
H         41.42012        19.80069        -2.82485
O         35.73029        24.28763         2.28344
H         34.91245        23.88698         2.67300
O         39.17910        50.56029        -2.27807
H         38.43733        50.98291        -2.75931
O         40.54037        31.89398         1.54404
H         40.54169        31.00937         1.96754
O         30.22154        35.75368        -0.91096
H         31.06102        36.01310        -1.34667
O         32.79180        41.18082        -1.73448
H         32.93232        41.96697        -2.30613
O         54.87836        28.62627         1.57478
H         54.89639        29.53592         1.94475
O         35.49342        20.47729        -1.68381
H         34.79496        19.95831        -2.13466
O         26.53139        26.09005        -0.32522
H         26.51589        25.39445        -1.01518
O         32.70381        23.72163        -1.10419
H         32.71926        22.96100        -1.72167
O         39.02155        42.14559        -2.32619
H         39.72727        42.70047        -2.72180
O         37.92130        18.35068         2.03063
H         37.38042        19.04145         2.48287
O         38.55042        54.93818        -2.82924
H         39.23243        55.30539        -3.42988
O         40.22345        50.67006         1.22098
H         41.00102        50.28233         1.67402
H         22.07037        26.85325         1.14160
H         22.10563        29.28854         1.07637
H         22.03563        31.16101         1.35292
H         22.04266        33.51891         0.77109
H         22.20955        34.94254        -0.57247
H         22.49229        36.92677        -2.05024
H         22.45733        39.70292        -2.57111
H         22.20603        42.10228        -1.96357
H         22.04332        43.91082        -1.19095
H         21.97969        46.35107        -0.90943
H         25.39811        23.54081         1.00405
H         23.33260        24.58044         1.73817
H         25.21950        49.79749        -0.22757
H         23.13779        48.51987        -0.59692
H         27.00284        22.75645         0.34431
H         26.98765        50.84135        -0.39451
H         29.08094        21.48660         0.24273
H         29.08841        51.98578        -0.15701
H         32.82688        19.22181         0.24089
H         30.75498        20.44029         0.72865
H         32.81206        54.09694        -0.36005
H         30.74125        52.90811        -0.10745
H         34.53928        18.16880        -0.32320
H         34.42166        55.00389        -0.89373
H         36.55869        16.97396         0.12274
H         36.46864        56.26043        -1.13367
H         40.60234        14.89699         0.34733
H         38.45808        16.07647         0.75779
H         40.38062        58.39363        -1.31167
H         38.21311        57.27894        -1.21759
H         43.01605        14.94738        -0.07799
H         42.80466        58.34390        -1.53576
H         45.04870        16.18670        -0.62483
H         44.94384        57.09948        -1.39801
H         48.51888        18.22749        -2.04368
H         46.52310        17.08148        -1.29445
H         48.02910        54.88211         0.96936
H         46.00066        56.04923         0.25475
H         50.26712        19.25294        -2.13244
H         49.70979        53.90618         1.43068
H         52.29251        20.41005        -1.45353
H         51.85577        52.80089         1.75846
H         55.99017        22.51149        -0.94832
H         53.90491        21.32816        -1.22993
H         55.50484        50.53942         2.77088
H         53.53784        51.81608         2.15121
H         57.63592        23.46507        -0.92113
H         57.34335        49.74691         2.60424
H         59.74412        24.70012        -0.70217
H         60.97076        26.81648        -0.46532
H         61.00575        29.25964        -0.23506
H         60.98178        31.10754         0.32421
H         61.02081        33.49797         0.62122
H         60.97321        35.46175         0.75550
H         60.93052        37.85040         1.21896
H         60.91435        39.71156         1.43433
H         60.89885        42.10814         1.78325
H         60.82781        43.97138         2.31276
H         60.73064        46.38930         2.73971
H         59.44560        48.49951         2.89610
