         272
 CSIRO Nanostructure Databank - Neutral Graphene Oxide Data Set
C        -11.15162         0.48049        -0.22010
C         -9.71673         0.89926        -0.42858
C         -8.89258         0.72770         0.85943
C         -7.58821         1.44455         0.96120
C         -6.49736         0.86454         1.89524
C         -5.08756         1.41989         1.60748
C         -3.80836         0.62519         1.68864
C         -2.57364         1.20790         0.99505
C         -1.27990         0.62910         1.58390
C          0.01768         1.30331         1.19041
C          1.29398         0.57595         1.51101
C          2.57641         1.31176         1.31927
C          3.78683         0.56246         0.83198
C          5.08950         1.30698         0.99684
C          6.36185         0.61448         0.60089
C          7.66379         1.38439         0.71364
C          8.98969         0.65862         0.60972
C         10.16083         1.44251        -0.03847
C         11.30563         0.51635        -0.40600
C         -9.59558         2.29894        -0.96113
C         -8.42429         2.95515        -0.90198
C         -7.20789         2.24646        -0.30242
C         -6.01805         3.24313        -0.10802
C         -5.08310         2.83111         1.04800
C         -3.79604         3.57592         0.99277
C         -2.53235         2.76381         0.88052
C         -1.25018         3.54820         0.80266
C          0.04977         2.79226         0.96458
C          1.31374         3.58432         1.12175
C          2.58934         2.81703         1.10292
C          3.75433         3.28247         0.23553
C          5.04887         2.80268         0.90348
C          6.33696         3.51478         0.96770
C          7.56601         2.80506         1.21387
C          8.97203         3.36965        -1.24236
C          9.59415         2.20436        -1.26652
C         -8.24730         4.25064        -1.67430
C         -7.34051         5.26857        -1.00985
C         -6.33335         4.74286        -0.06182
C         -5.13683         5.62641         0.22719
C         -3.80872         4.92174         0.29274
C         -2.52343         5.68330         0.20649
C         -1.34253         5.09074         1.00190
C          0.00775         5.84101         0.79461
C          1.31291         5.06835         0.81572
C          2.71469         5.67539         0.49618
C          3.67219         4.74441        -0.25906
C          4.81566         5.36422        -1.03445
C          6.09819         4.61604        -1.41482
C          7.39258         5.37417        -1.37897
C          8.68289         4.66893        -1.37425
C         -7.32190         6.55500        -1.44517
C         -6.33274         7.56616        -1.00372
C         -5.14433         7.07465        -0.18058
C         -3.86008         7.85391        -0.17798
C         -2.52680         7.15026        -0.16113
C         -1.24786         7.91881        -0.28038
C          0.03961         7.33474         0.29375
C          1.16787         7.33994        -0.74672
C          2.55757         7.05338        -0.21219
C          3.69842         7.70248        -0.90757
C          4.86774         6.84734        -1.27628
C          6.15684         7.53686        -1.60126
C          7.39512         6.74443        -1.43685
C         -6.12484         8.78009        -1.82705
C         -5.02090         9.55239        -1.75790
C         -3.82865         9.24715        -0.93396
C         -2.53437         9.70812        -1.33915
C         -1.30604         9.46274        -0.49075
C         -0.07740        10.03240        -1.21267
C          1.20919         9.79751        -1.00686
C          2.53037         9.90025        -0.95529
C          3.55076         9.01626        -1.70398
C          4.92546         9.68584        -1.67130
C          6.09360         9.02593        -1.55520
C        -11.42867        -0.61143         0.49895
C        -10.30549        -1.38686         1.10605
C         -9.02565        -0.63102         1.49832
C         -7.76312        -1.44203         1.77156
C         -6.45360        -0.69500         2.03450
C         -5.15960        -1.50449         2.09330
C         -3.81340        -0.86887         1.86548
C         -2.63058        -1.55905         1.97361
C         -1.30303        -0.83478         1.94399
C         -0.02924        -1.62150         1.66690
C          1.24831        -0.91659         1.32957
C          2.58300        -1.60915         1.49733
C          3.77713        -0.92913         0.87814
C          5.07018        -1.69252         0.76697
C          6.33290        -0.89354         0.48072
C          7.64309        -1.59087         0.50897
C          8.93976        -0.82690         0.47462
C          9.96689        -1.57929        -0.37004
C         11.26813        -0.82155        -0.42869
C        -10.17084        -2.75432         0.65521
C         -8.82074        -3.29070         0.29465
C         -7.72890        -2.86519         1.27811
C         -6.43396        -3.63884         1.26348
C         -5.27285        -3.05604         2.10080
C         -3.91334        -3.78609         1.88357
C         -2.60900        -3.05226         2.06623
C         -1.28113        -3.81311         1.99042
C          0.03167        -3.07574         2.04670
C          1.35591        -3.83480         1.94768
C          2.64480        -3.06017         1.84087
C          3.93340        -3.84877         1.71030
C          5.15689        -3.13181         1.18349
C          6.51018        -3.77465         1.40650
C          7.74439        -2.99975         1.02030
C          9.01969        -3.68701         0.65937
C         10.04856        -3.03013         0.07955
C         -8.82779        -4.80281        -0.02823
C         -7.45578        -5.24713        -0.50616
C         -6.30568        -4.81347         0.34195
C         -4.92784        -5.29387         0.00520
C         -3.78026        -4.91772         0.88422
C         -2.57555        -5.82983         0.95746
C         -1.29166        -5.27542         1.56903
C          0.02193        -5.97091         1.25307
C          1.34821        -5.29449         1.59240
C          2.61823        -6.09592         1.23835
C          3.93747        -5.33462         1.51205
C          5.22518        -6.00665         1.04093
C          6.57803        -5.35038         1.45575
C          7.72164        -5.77369         0.52434
C          9.04675        -5.16341         0.97129
C         -7.30906        -6.15599        -1.49495
C         -6.00778        -6.79529        -1.81542
C         -4.83691        -6.45850        -0.94312
C         -3.74189        -7.45956        -0.74825
C         -2.53259        -7.06716         0.08560
C         -1.20495        -7.64522        -0.35386
C          0.07271        -7.04970         0.18085
C          1.21750        -6.88985        -0.82102
C          2.58001        -6.55602        -0.21286
C          3.83396        -7.07220        -0.82626
C          5.15199        -6.95780        -0.10752
C          6.38797        -7.37206        -0.91596
C          7.62485        -6.59779        -0.52730
C         -5.96776        -8.06655        -2.58701
C         -4.82871        -8.77399        -2.69453
C         -3.66447        -8.54178        -1.79393
C         -2.31831        -8.90343        -2.24024
C         -1.17514        -8.35045        -1.67865
C          0.06124        -8.53179        -2.33702
C          1.27873        -7.94956        -1.89986
C          2.45174        -8.30295        -2.53496
C          3.81864        -8.09687        -1.95248
C          4.92148        -7.68624        -2.90993
C          6.11224        -7.32976        -2.40700
O         -0.36234        -8.35267         0.61574
O          3.52612        -0.20511        -0.36744
O          0.78345         5.75708         2.02139
O          0.13553         1.82914        -0.15515
O          6.93775        -1.39688        -0.75724
O          2.79798        -2.02417         2.87350
O         -5.81972        -0.99504         3.29620
O         -1.90207         3.08542        -0.39687
O         -4.27082         1.36601         2.83251
O          9.36101        -0.20738         1.72076
O         -8.76228         1.90513         1.68879
O          6.03818         3.44577        -1.76760
O          6.92030        -5.77582         2.72147
O         -6.79319         1.23641        -1.21565
O          2.16214         3.46341         2.31852
O          4.97894         2.08930         2.21968
O         -1.78297         7.25698        -1.44626
O         -3.06886         4.98905        -0.95194
O         -3.27047        -3.79983         3.16469
O         -4.92653        -5.91427        -2.30622
O          3.60279         4.83037        -1.68886
O          4.11382        -4.75558         2.82837
O         -0.71540        -6.25725         2.46225
O         -6.64439        -5.02349         1.76076
O         -1.24174         0.21291         2.97016
O          3.33754        -5.73025        -1.15087
O          2.09140         0.96491         2.65258
O          8.49127         3.44787         1.78177
O         -8.10857        -2.55470         2.64066
O         -3.95651         9.08083         0.52905
O          0.89455        -5.58481        -1.50450
O          1.41591        -4.86567         2.97229
O          5.18647        -7.44752         1.26047
O          0.96383         7.23120        -1.94521
O         -4.64564         3.69413         2.15514
O          4.92321        -2.78090        -0.21279
O         -2.87473        -7.14899         1.49427
O          6.93832         1.27137        -0.56024
O          5.26924         7.03962        -2.66777
O          7.31898        -3.12837         2.42002
O        -10.03182        -0.89685         2.48336
O          3.38850         8.01345         0.49821
O          0.40523        -1.42202         0.26450
O         -6.15267         5.36642         1.22898
O         -3.97082        -4.26199        -0.42628
O         -0.63399        -3.47169         3.26009
O         -4.10346        -8.82275        -0.39865
O         -6.23265         7.80821         0.43201
O         -5.64479        -3.36181         3.44898
H         -5.82898        -4.32264         3.51253
O         -9.21780        -5.56992         1.10276
H         -8.48774        -5.52943         1.76546
O         -0.46817        -5.67075        -2.02244
H         -0.39212        -5.14960        -2.85956
O          6.65043        -8.76720        -0.56893
H          6.59450        -8.81764         0.41380
O         10.15960        -5.77574         0.35032
H         10.24107        -6.68950         0.68964
O         -8.52193        -2.66808        -0.99079
H         -8.81377        -1.70771        -1.03285
O         -6.86002         1.34669         3.18924
H         -6.15695         1.06122         3.81539
O          4.14073        -9.39706        -1.40025
H          5.10191        -9.39914        -1.14046
O         -1.45306        10.11688         0.77399
H         -0.70977         9.82602         1.34904
O         10.74739         2.35450         0.88127
H         10.04163         2.85823         1.35848
O          9.49373        -1.58622        -1.74616
H          8.53836        -1.81707        -1.76054
O          3.14505         8.79342        -3.04451
H          2.32344         8.25099        -3.03808
O          6.35081         4.81506         1.32982
H          7.27503         4.98132         1.65586
O         -9.11485        -0.02548        -1.38876
H         -8.19770         0.36491        -1.58211
O         -1.71958         5.32883         2.36770
H         -0.91896         5.26141         2.93591
O          2.57145        -7.27784         2.03863
H          2.55944        -7.00439         2.98164
O         -9.50520         4.84156        -1.99347
H         -9.92035         5.14973        -1.16186
O          0.40370         8.17334         1.39778
H          0.89480         7.62464         2.05476
O          3.60413         2.46670        -0.93880
H          4.31240         2.71537        -1.58905
O          3.37515         5.86632         1.74624
H          2.72067         6.15700         2.41775
O         -2.65102         0.68421        -0.34364
H         -2.08550         1.25144        -0.92163
O         -5.21381         3.10782        -1.29793
H         -5.50477         2.23562        -1.70004
H         12.18646        -1.39224        -0.63560
H         12.27403         1.02608        -0.52515
H          9.64135         1.66608        -2.23178
H          9.55431         5.33913        -1.51507
H          8.35583         7.28339        -1.42360
H          7.04096         9.58435        -1.50931
H          4.94185        10.78630        -1.70444
H          2.95403        10.61290        -0.22285
H         -0.31352        10.79442        -1.98085
H         -2.41852        10.13716        -2.34633
H         -4.93623        10.42345        -2.42527
H         -6.92281         9.05365        -2.53406
H         -8.03916         6.85591        -2.22532
H         -7.76572         3.96945        -2.65309
H        -10.45958         2.75364        -1.47144
H        -11.95504         1.07843        -0.67589
H        -12.45839        -0.95929         0.66800
H        -11.00082        -3.13219         0.03189
H         -9.58050        -4.97980        -0.83638
H         -8.19741        -6.50748        -2.04247
H         -6.85123        -8.33394        -3.18538
H         -4.77705        -9.64686        -3.36264
H         -2.22424        -9.44695        -3.19332
H          0.08631        -9.18293        -3.22471
H          2.38551        -9.03780        -3.35414
H          4.74106        -7.68639        -3.99528
H          6.93778        -7.04226        -3.07548
H          8.54050        -6.83055        -1.09693
H          9.08438        -5.30160         2.09314
H         10.94891        -3.60354        -0.19066
