         404
 CSIRO Nanostructure Databank - Neutral Graphene Oxide Data Set
C          1.19402         4.42259         3.62488
C         -0.00635         5.11532         3.52891
C          1.12276         7.02884         2.51121
C         -0.04748         6.39740         2.96789
C          1.10335         8.34164         1.88376
C         -0.10757         8.98383         1.54669
C          1.08271        10.84802         0.51906
C         -0.11557        10.17532         0.83510
C          1.08984        11.98223        -0.38235
C          0.08767        12.20680        -1.31846
C          1.33498        14.02125        -2.36397
C          0.18516        13.24795        -2.27116
C          1.36670        16.30716        -3.00389
C          0.12192        16.95219        -2.95162
C          1.21410        19.10127        -2.46961
C          0.04781        18.31216        -2.66443
C          1.14346        20.49680        -2.20524
C         -0.05248        21.20438        -1.83199
C          1.06286        23.44581        -2.10399
C         -0.11199        22.56342        -1.72805
C          1.06533        24.82654        -1.40653
C         -0.12737        25.63822        -1.82617
C          1.10935        27.70506        -1.47040
C         -0.09712        26.99502        -1.76214
C          1.08586        29.17683        -1.34204
C         -0.16376        29.87376        -0.99650
C          1.06990        31.82292        -0.12517
C         -0.14689        31.10003        -0.41425
C          1.01581        33.09141         0.55130
C         -0.11127        33.55693         1.22480
C          1.11111        35.38813         2.30996
C         -0.05462        34.66316         2.10269
C          1.24303        36.25451         3.45672
C          3.63248         4.31078         3.21215
C          2.39429         5.02131         3.17913
C          3.59267         6.96274         2.24100
C          2.36813         6.34319         2.64393
C          3.57952         8.30898         1.75356
C          2.33211         8.98611         1.55884
C          3.56211        10.97129         0.76361
C          2.32379        10.29524         0.97577
C          3.57035        12.35913         0.29075
C          2.25429        12.87657        -0.36696
C          3.70825        14.38484        -1.68443
C          2.43750        13.83441        -1.46748
C          3.81807        16.38159        -2.58445
C          2.55831        17.02469        -2.72828
C          3.71924        19.12411        -2.27960
C          2.50149        18.43852        -2.50180
C          3.72168        20.58868        -2.31777
C          2.37784        21.28126        -2.30449
C          3.62497        23.42371        -1.62834
C          2.34257        22.68833        -1.80345
C          3.57712        24.90041        -1.71662
C          2.38071        25.57719        -1.64248
C          3.57489        27.73739        -1.34103
C          2.36299        27.02936        -1.51175
C          3.57738        29.05988        -0.62120
C          2.36907        29.88390        -1.00428
C          3.56274        31.91138        -0.25710
C          2.32455        31.24431        -0.42330
C          3.51271        33.36817        -0.00093
C          2.21684        33.94465         0.50797
C          3.57157        35.83251         1.70803
C          2.24941        35.18554         1.39648
C          3.62639        36.72428         2.95919
C          2.41317        36.85214         3.79166
C          6.04228         4.02589         2.68968
C          4.80275         4.88212         2.76061
C          6.04954         6.88413         1.95323
C          4.81693         6.24291         2.30779
C          6.04413         8.24992         1.55190
C          4.80298         8.94632         1.41863
C          6.03215        11.00082         0.76995
C          4.79118        10.30588         0.96458
C          6.02673        12.36594         0.35889
C          4.84811        13.00471        -0.05340
C          6.07398        14.96323        -1.06980
C          4.87184        14.19215        -0.87166
C          6.14545        16.26883        -1.66876
C          4.96075        17.00856        -2.08562
C          6.16653        19.16526        -1.87158
C          4.94518        18.44167        -2.05416
C          6.16239        20.59575        -1.83236
C          4.94233        21.32580        -1.93082
C          6.13283        23.46094        -1.68659
C          4.91773        22.71846        -1.79090
C          6.13270        24.89010        -1.74710
C          4.85362        25.59771        -1.94433
C          6.10960        27.82743        -1.40520
C          4.84218        27.15628        -1.72057
C          6.09611        29.16557        -0.98710
C          4.86192        29.85179        -0.73133
C          6.07117        31.98320        -0.34528
C          4.81810        31.23917        -0.46043
C          6.07003        33.32018         0.05600
C          4.82167        34.09217         0.26825
C          6.03632        35.71621         1.72697
C          4.84095        35.23757         1.22634
C          6.09515        36.61794         2.87076
C          4.93009        36.96593         3.55319
C          8.51084         4.10493         2.49696
C          7.31604         4.78752         2.41493
C          8.51489         6.83060         1.73057
C          7.29053         6.16875         2.03061
C          8.51729         8.23154         1.39837
C          7.27825         8.93498         1.29286
C          8.51812        11.02444         0.78114
C          7.26966        10.31655         0.94441
C          8.53503        12.41019         0.57753
C          7.27508        13.13299         0.38814
C          8.60527        14.98002        -0.80575
C          7.27456        14.50813        -0.32526
C          8.63883        16.28813        -1.57948
C          7.36635        17.01801        -1.67772
C          8.64453        19.16848        -1.72421
C          7.39307        18.43661        -1.77098
C          8.62533        20.60132        -1.71183
C          7.38739        21.31537        -1.70907
C          8.58897        23.47368        -1.60798
C          7.36665        22.74280        -1.66055
C          8.55305        24.90578        -1.55845
C          7.34681        25.61645        -1.67266
C          8.62830        27.83407        -1.38538
C          7.37447        27.13883        -1.88027
C          8.60775        29.22150        -1.10977
C          7.34255        29.91631        -0.89195
C          8.59716        32.03138        -0.61696
C          7.31798        31.27261        -0.58940
C          8.59826        33.49036        -0.24654
C          7.30173        34.11679         0.15321
C          8.60437        35.74690         1.66651
C          7.31294        35.32740         1.07674
C          8.58001        36.71021         2.73455
C          7.35252        37.08834         3.32834
C         10.96221         4.02445         2.22682
C          9.75151         4.72914         2.15798
C         10.97182         6.73454         1.39594
C          9.73938         6.10464         1.75715
C         10.99570         8.17907         1.23202
C          9.74842         8.91805         1.22160
C         10.99277        11.04040         0.93786
C          9.76126        10.32081         0.96889
C         11.06615        12.42352         0.71838
C          9.79713        13.15126         0.60498
C         11.15527        15.04042        -0.52928
C          9.84831        14.53476        -0.11306
C         11.23085        16.32696        -1.25190
C          9.93793        17.02558        -1.69205
C         11.12197        19.21545        -1.65584
C          9.89277        18.49577        -1.68367
C         11.10914        20.63827        -1.82499
C          9.84655        21.34124        -1.77640
C         11.05046        23.51415        -1.95552
C          9.81279        22.75242        -1.72311
C         11.12119        24.89340        -1.41416
C          9.80458        25.63212        -1.26850
C         11.09859        27.73537        -1.23241
C          9.85332        27.10209        -1.31870
C         11.13393        29.24307        -1.33832
C          9.84233        29.92050        -0.93288
C         11.11539        31.97625        -0.38846
C          9.88032        31.28770        -0.61285
C         11.16481        33.41323        -0.01150
C          9.86993        34.19052         0.15274
C         11.05631        35.76074         1.71330
C          9.82785        35.25368         1.19124
C         11.02949        36.84180         2.65987
C          9.79131        37.27337         3.18065
C         13.38765         3.88590         1.88930
C         12.18792         4.61456         1.81306
C         13.39157         6.62884         0.89128
C         12.15724         5.98326         1.34811
C         13.45128         8.14733         0.90954
C         12.20564         8.85854         1.20488
C         13.53573        11.06786         1.29721
C         12.22208        10.32564         1.31040
C         13.55562        12.45950         0.78754
C         12.32000        13.11973         0.55759
C         13.58252        15.15578        -0.14075
C         12.32653        14.45434        -0.01913
C         13.57523        16.55198        -0.50599
C         12.42493        17.15869        -0.99101
C         13.55452        19.31652        -1.36488
C         12.36514        18.56009        -1.35266
C         13.55640        20.64198        -1.84316
C         12.33447        21.32801        -2.00224
C         13.60515        23.55317        -1.94983
C         12.35741        22.79383        -2.18899
C         13.61131        24.92830        -1.72623
C         12.37841        25.64612        -1.51726
C         13.61457        27.75642        -1.24547
C         12.34717        27.02719        -1.29350
C         13.60764        29.11298        -1.00600
C         12.32257        29.77210        -0.55296
C         13.55657        31.91904        -0.13573
C         12.34447        31.28008        -0.44973
C         13.54881        33.17403         0.53821
C         12.37142        33.90657         0.69169
C         13.51535        35.80468         1.82735
C         12.32813        35.17688         1.38847
C         13.49568        36.97896         2.66584
C         12.23715        37.42916         3.10823
C         15.94057         3.78082         1.68106
C         14.65404         4.39203         1.37019
C         15.94300         6.60988         1.03597
C         14.68285         5.87792         0.92076
C         15.94191         8.04931         1.11280
C         14.76487         8.79657         1.10333
C         16.10333        10.97756         0.98555
C         14.80451        10.25522         1.31968
C         16.06098        12.39205         0.57421
C         14.80475        13.11733         0.54415
C         16.06835        15.23445         0.12390
C         14.78995        14.49709         0.18514
C         16.09298        16.60901        -0.39922
C         14.80258        17.37613        -0.16607
C         16.10244        19.38196        -1.20601
C         14.80863        18.75671        -0.80960
C         16.12048        20.52838        -2.19213
C         14.82333        21.32318        -2.20774
C         16.14129        23.53212        -1.97984
C         14.86184        22.83453        -2.19204
C         16.12068        24.93571        -1.75918
C         14.87542        25.64986        -1.65057
C         16.11861        27.74221        -1.27579
C         14.87265        27.03979        -1.42127
C         16.13813        29.14362        -1.01871
C         14.86140        29.87429        -1.03616
C         16.12177        31.88151        -0.06892
C         14.84671        31.31370        -0.53497
C         16.11440        33.13343         0.59262
C         14.82343        33.66957         1.08391
C         16.04685        35.78487         1.51526
C         14.79098        35.07942         1.65597
C         15.97030        37.42517         2.69108
C         14.67785        37.56870         3.23699
C         18.36056         3.68873         1.23618
C         17.11406         4.41524         1.30045
C         18.39459         6.46850         0.80583
C         17.13870         5.84590         1.03587
C         18.51346         7.93172         0.85532
C         17.24780         8.76295         1.11556
C         18.45695        10.75898         0.20444
C         17.28573        10.16830         0.68469
C         18.45985        12.18235        -0.07323
C         17.26576        12.95740         0.14598
C         18.53361        15.03790        -0.59420
C         17.35856        14.42287         0.04148
C         18.52709        16.42236        -0.89071
C         17.29897        17.20239        -0.77370
C         18.54026        19.21786        -1.53683
C         17.35016        18.58413        -1.17059
C         18.56109        20.65506        -1.78427
C         17.36642        21.36731        -1.95663
C         18.60227        23.50116        -1.83034
C         17.35390        22.79609        -1.95302
C         18.60033        24.92374        -1.70225
C         17.35916        25.63679        -1.61907
C         18.59564        27.75096        -1.23831
C         17.35737        27.04070        -1.37922
C         18.59365        29.14407        -0.91886
C         17.34264        29.83822        -0.78689
C         18.57455        31.86381        -0.00400
C         17.33880        31.20912        -0.31963
C         18.57008        33.18185         0.55119
C         17.31986        33.79340         0.88468
C         18.47784        35.83305         1.79372
C         17.30716        35.14477         1.42201
C         18.44181        36.93907         2.72593
C         17.24122        37.50002         3.28084
C         19.50941         4.28574         0.80287
C         20.73075         6.36090         0.10422
C         19.55311         5.70433         0.56415
C         20.75543         7.72559        -0.13524
C         19.67003         8.57098         0.21344
C         20.81099        10.65591        -0.49148
C         19.65724         9.97606        -0.01532
C         20.80137        12.00958        -0.74305
C         19.63835        12.80574        -0.54951
C         20.82393        14.86425        -1.37171
C         19.66972        14.23436        -0.84790
C         20.85660        16.23043        -1.58585
C         19.72268        17.04219        -1.35153
C         20.97185        19.17476        -1.74621
C         19.76990        18.47685        -1.56143
C         21.00070        20.56998        -1.83516
C         19.82351        21.33674        -1.82957
C         21.04137        23.51954        -1.82720
C         19.83185        22.78459        -1.85016
C         21.04180        24.89757        -1.71910
C         19.83546        25.63004        -1.61738
C         21.03570        27.79067        -1.26366
C         19.83331        27.05906        -1.38837
C         21.03004        29.13729        -0.93970
C         19.82295        29.83763        -0.73194
C         21.00216        31.95275        -0.08993
C         19.81883        31.22352        -0.28568
C         20.98159        33.26234         0.40237
C         19.78654        33.88569         0.76431
C         20.96819        35.63743         2.14947
C         19.80253        35.32885         1.25198
C         20.88120        36.63127         3.08447
C         19.66552        37.30897         3.34028
O         12.80403        10.87801         2.55707
O          1.91528        35.26954        -0.02071
O          8.66918        14.98660        -2.25410
O         11.57081        23.34642        -3.31092
O          1.41099        14.95820        -3.41125
O          9.73396        14.42101         1.33042
O          4.83480        26.52186        -3.06096
O         15.67753        10.71583         2.38864
O          3.11026        21.13433        -3.56456
O         15.98786        37.13334         1.27111
O          1.93620        29.83104        -2.38760
O         10.72189        34.42697        -0.99868
O          8.58138        33.09820        -1.64590
O          2.65504        13.28624         0.96833
O         18.17347         8.45228         2.19788
O         10.49158        25.03918        -0.09954
O          3.90981        15.02549        -2.91942
O         10.82985        16.40147        -2.66864
O          2.86032        22.85982        -0.44743
O          7.13591        14.41492         1.10802
O          4.10421        34.24179        -1.00864
O          3.50263        37.28054         1.59389
O         16.94125        15.07058         1.29297
O         14.74764        22.05821        -3.47095
O         14.85867        31.00908        -1.97736
O         13.30106         7.39290        -0.35922
O         15.50226        19.72959         0.08222
O         14.64124         4.80691        -0.05911
O          7.21619        35.47573        -0.38027
O         14.86617        33.88046         2.52903
O         14.73032        17.56605         1.27396
H         15.27963        18.35775         1.47986
O         16.25404        19.92129        -3.50339
H         15.97922        20.60507        -4.15670
O         12.11152        29.32773         0.82706
H         12.87073        29.62734         1.36960
O         11.35349        29.57378        -2.73498
H         10.54851        29.33416        -3.24060
O          6.17864         3.22873         3.87609
H          6.30669         3.83267         4.63589
O          3.38798        28.77408         0.81596
H          4.17145        28.27456         1.12887
O          0.92386        24.62581         0.02249
H          1.64415        24.00335         0.29487
O          7.43170        27.31176        -3.33820
H          6.54503        27.04582        -3.68685
O         20.00106        36.14252         0.03141
H         20.06836        37.08004         0.31349
O          1.01064        23.70106        -3.52696
H          1.12636        22.84949        -3.99991
H          1.21947         3.40672         4.04396
H         -0.93744         4.65082         3.88248
H         -1.01691         6.90862         2.89692
H         -1.06827         8.51099         1.79034
H         -1.07732        10.60874         0.52749
H         -0.79664        11.55486        -1.34130
H         -0.63087        13.40725        -2.98722
H         -0.79393        16.37923        -3.14792
H         -0.93768        18.79700        -2.64096
H         -0.95752        20.61806        -1.61210
H         -1.05818        23.03941        -1.43266
H         -1.05949        25.11651        -2.08509
H         -1.00985        27.56642        -1.98365
H         -1.12608        29.36757        -1.15549
H         -1.10545        31.57561        -0.16588
H         -1.03992        32.97070         1.20725
H         -0.93089        34.87588         2.73262
H          0.36173        36.37647         4.10403
H          3.64655         3.27491         3.58174
H          2.48827        37.44292         4.71640
H          5.89701         3.29361         1.84514
H          4.99430        37.47953         4.52354
H          8.50927         3.05041         2.80921
H          7.37179        37.79909         4.16716
H         10.96130         2.98025         2.57218
H          9.77131        38.05567         3.95294
H         13.38008         2.90024         2.37790
H         12.18568        38.26034         3.82650
H         15.96851         2.76107         2.09334
H         14.56256        38.13398         4.17327
H         18.34491         2.61146         1.45687
H         17.32333        37.97373         4.26965
H         20.43040         3.69892         0.67456
H         21.61989         5.75533        -0.12263
H         21.66178         8.16051        -0.57867
H         21.74412        10.09936        -0.64976
H         21.72971        12.47542        -1.09696
H         21.72522        14.28046        -1.59750
H         21.78060        16.68061        -1.97270
H         21.92777        18.63389        -1.76026
H         21.97936        21.06231        -1.91252
H         22.00522        22.99563        -1.87295
H         22.00818        25.41720        -1.68649
H         22.00407        27.29225        -1.40002
H         21.99344        29.65189        -0.82830
H         21.97567        31.50709        -0.33323
H         21.93617        33.79654         0.50084
H         21.93355        35.14904         1.96098
H         21.76967        36.90735         3.67096
H         19.64798        38.09139         4.11177
