         420
 CSIRO Nanostructure Databank - Neutral Graphene Oxide Data Set
C         28.12525        27.32005         1.35574
C         28.09307        28.76519         1.31372
C         26.88364        29.46799         1.52355
C         28.02320        31.60323         1.21320
C         26.86036        30.85411         1.49306
C         28.01074        33.06496         1.24850
C         26.83193        33.79470         1.64257
C         27.98594        35.94337         1.53517
C         26.82309        35.16419         1.78233
C         28.13800        37.28826         1.96116
C         27.05916        38.16795         2.33350
C         28.20482        40.40042         1.99993
C         27.08640        39.55385         2.32217
C         28.09639        41.74318         1.47979
C         26.85096        42.42530         1.39429
C         27.96490        44.47156         0.68413
C         26.78726        43.74855         1.00791
C         27.91379        45.85449         0.33849
C         30.47467        27.28251         0.65720
C         29.25178        26.62163         1.02172
C         30.58726        28.75353         0.99829
C         29.26792        29.48402         1.02127
C         30.42952        31.60955         0.55445
C         29.24083        30.90055         0.93827
C         30.34840        33.06595         0.40239
C         29.14948        33.77796         0.88961
C         30.45376        36.00294         0.74512
C         29.13598        35.25457         0.91109
C         30.58221        37.35799         1.33192
C         29.47524        37.80378         2.03519
C         30.66305        40.38650         1.50582
C         29.51735        39.89401         2.14494
C         30.56694        41.76187         1.07677
C         29.28951        42.42889         1.09350
C         30.41431        44.52819         0.37920
C         29.22679        43.80600         0.71196
C         30.34240        45.92063         0.04940
C         29.05781        46.55372         0.04267
C         32.82036        24.46735        -0.12626
C         31.65413        25.16150         0.10246
C         32.75619        27.34385        -0.33564
C         31.59035        26.59336         0.18998
C         32.83244        28.81936        -0.14858
C         31.69488        29.50453         0.30193
C         32.87431        31.65889         0.03724
C         31.64980        30.93277         0.28426
C         32.92432        33.07006         0.17730
C         31.65883        33.82430         0.25445
C         32.96609        35.97056         0.55158
C         31.72143        35.19216         0.89143
C         32.96686        37.40918         0.70133
C         31.80543        38.11562         1.15727
C         33.00346        40.25861         0.81925
C         31.83899        39.56707         1.23529
C         33.05590        41.76050         1.00873
C         31.73587        42.46414         0.75848
C         32.85847        44.57436         0.10231
C         31.68408        43.85469         0.42594
C         32.76775        45.92143        -0.35051
C         31.52912        46.62489        -0.31660
C         32.66393        48.65577        -1.17548
C         31.56573        48.03007        -0.67935
C         35.40841        23.02669        -0.17513
C         35.31785        24.45500        -0.29466
C         34.07658        25.11441        -0.34406
C         35.30807        27.29602        -0.83194
C         34.01607        26.55720        -0.66356
C         35.27468        28.82663        -0.78292
C         34.03201        29.53117        -0.42597
C         35.31007        31.67380        -0.37439
C         34.08173        30.94145        -0.22439
C         35.35045        33.09259        -0.21139
C         34.13299        33.80008         0.11755
C         35.39906        35.97076         0.26233
C         34.12127        35.23946         0.28502
C         35.36918        37.43200         0.09732
C         34.16027        38.13254         0.37023
C         35.35506        40.26418        -0.01511
C         34.16135        39.56503         0.38703
C         35.32811        41.72929        -0.08180
C         34.19168        42.42208         0.28405
C         35.24924        44.48529        -0.62102
C         34.20990        43.93187         0.31228
C         34.93523        45.64763        -1.31825
C         33.88724        46.51995        -1.01682
C         35.23489        48.72671        -1.13264
C         33.93446        47.93797        -1.57811
C         35.33122        50.14956        -1.63573
C         37.86607        23.08479        -0.15139
C         36.60882        22.37691        -0.15100
C         37.82346        24.51829        -0.18052
C         36.56880        25.20767        -0.31345
C         37.78274        27.39940        -0.17674
C         36.55218        26.59753        -0.50392
C         37.76515        28.83568        -0.63224
C         36.55398        29.54336        -0.64202
C         37.72663        31.68351        -0.88499
C         36.53225        30.97431        -0.63153
C         37.75485        33.09776        -0.82067
C         36.57554        33.78293        -0.42576
C         37.78823        36.01101        -0.63932
C         36.66309        35.22315        -0.11999
C         37.78094        37.39667        -0.54553
C         36.55655        38.11871        -0.22183
C         37.76566        40.24397        -0.68284
C         36.51340        39.54293        -0.33476
C         37.77899        41.73101        -0.66841
C         36.52209        42.45935        -0.44575
C         37.80637        44.54543        -0.93650
C         36.52768        43.83412        -0.71460
C         37.88792        45.94697        -1.19529
C         36.77373        46.72231        -1.64337
C         37.80246        48.81612        -1.10795
C         36.59932        48.06127        -1.35668
C         37.78427        50.22298        -1.25952
C         36.50486        50.83059        -1.60920
C         40.37058        20.28803        -0.28340
C         39.19300        20.97197        -0.32482
C         40.36289        23.15881         0.15844
C         39.09526        22.38849        -0.12909
C         40.29988        24.57135        -0.35037
C         39.06602        25.25578        -0.32620
C         40.25073        27.38365        -0.68575
C         39.05678        26.66952        -0.49068
C         40.23854        28.82898        -0.82045
C         38.98758        29.50516        -0.84989
C         40.26486        31.69783        -1.30349
C         38.93891        30.92669        -1.21421
C         40.22608        33.16228        -1.15240
C         38.99591        33.81285        -1.04477
C         40.27643        36.04048        -1.32632
C         38.93908        35.27761        -1.18069
C         40.24187        37.45314        -0.95205
C         39.03434        38.12697        -0.71117
C         40.27285        40.28617        -0.53941
C         39.04964        39.53965        -0.58042
C         40.28006        41.70208        -0.37994
C         38.99902        42.45133        -0.16229
C         40.26234        44.56150        -0.59257
C         39.03014        43.88440        -0.62855
C         40.28547        45.98240        -0.71164
C         39.07351        46.68514        -0.92354
C         40.26275        48.83376        -0.80557
C         39.04914        48.11459        -0.95892
C         40.26201        50.26126        -0.98911
C         39.02935        50.94501        -1.26450
C         40.30171        52.99007        -1.71988
C         39.09719        52.33344        -1.59049
C         42.86146        20.25060        -0.48997
C         41.66958        20.96237         0.09204
C         42.70403        23.10176        -0.76529
C         41.61870        22.43104        -0.25557
C         42.72654        24.54823        -0.83906
C         41.50165        25.26258        -0.64616
C         42.72309        27.39423        -0.85773
C         41.48762        26.68244        -0.78147
C         42.71883        28.82528        -0.78861
C         41.46344        29.54197        -0.86735
C         42.67060        31.69708        -0.74051
C         41.49500        30.97192        -0.96516
C         42.69505        33.12125        -0.85667
C         41.48918        33.85844        -1.08916
C         42.76192        35.96240        -1.03754
C         41.53925        35.27916        -1.17151
C         42.78720        37.43029        -1.22054
C         41.48661        38.20517        -1.08265
C         42.74641        40.29448        -0.45441
C         41.51760        39.61747        -0.68211
C         42.73286        41.70122        -0.16871
C         41.49030        42.40461        -0.26033
C         42.72038        44.52312        -0.20140
C         41.50532        43.84501        -0.30838
C         42.78499        45.93554        -0.74065
C         41.50150        46.71196        -0.60845
C         42.74881        48.83668        -0.41724
C         41.48481        48.10316        -0.63291
C         42.76230        50.33872        -0.63898
C         41.49458        50.97739        -1.04020
C         42.80478        52.97073        -1.62593
C         41.53253        52.32033        -1.46160
C         43.86845        20.88586        -1.10720
C         45.18247        23.14375        -1.49578
C         43.86313        22.35152        -1.29982
C         45.18867        24.57403        -1.15249
C         43.94948        25.25673        -0.99137
C         45.18934        27.40321        -0.78492
C         43.95313        26.69220        -0.88792
C         45.16770        28.82256        -0.58690
C         43.92641        29.51617        -0.61427
C         45.17337        31.68528        -0.36664
C         43.87001        30.96114        -0.19497
C         45.15702        33.10058        -0.44173
C         43.93186        33.82619        -0.66895
C         45.21232        35.93281        -0.52927
C         43.97066        35.24182        -0.76785
C         45.29295        37.40682        -0.65470
C         44.05553        38.19033        -0.96910
C         45.17001        40.24070        -0.09607
C         43.99184        39.59942        -0.52757
C         45.09915        41.58451         0.38984
C         43.91978        42.39359         0.21275
C         45.10231        44.64436         0.38572
C         43.92082        43.84436         0.20466
C         45.18214        46.01953        -0.03065
C         44.01167        46.71470        -0.37611
C         45.25212        48.83357        -0.45696
C         44.02705        48.11385        -0.46254
C         45.26818        50.25051        -0.73429
C         44.05760        50.97617        -0.94051
C         44.00189        52.31751        -1.41860
C         47.63305        23.15985        -1.40118
C         46.46626        22.45470        -1.54324
C         47.64667        24.56615        -1.19080
C         46.42751        25.27054        -1.05147
C         47.64350        27.40588        -0.56069
C         46.42791        26.70416        -0.81364
C         47.59280        28.80026        -0.22798
C         46.38816        29.51836        -0.31298
C         47.59989        31.69965        -0.07346
C         46.38200        30.97999        -0.21599
C         47.60211        33.10199        -0.09880
C         46.37297        33.81006        -0.26001
C         47.55035        35.92148         0.42872
C         46.36368        35.23544        -0.20533
C         47.63194        37.40436         0.17518
C         46.46422        38.11845        -0.10440
C         47.61899        40.20763         0.42080
C         46.42725        39.52988         0.02765
C         47.53827        41.56009         0.87968
C         46.25008        42.06611         1.06123
C         47.54692        44.68206         0.88584
C         46.25368        44.17643         1.06522
C         47.63488        46.00342         0.32092
C         46.42984        46.71308         0.02365
C         47.73981        48.75944        -0.42132
C         46.47655        48.10440        -0.29806
C         47.72650        50.15823        -0.71866
C         46.55472        50.86494        -0.86259
C         50.17795        24.57631        -0.93649
C         48.93781        25.34107        -1.32002
C         50.11431        27.34694        -0.41402
C         48.90357        26.71186        -0.67137
C         50.12308        28.74220         0.06803
C         48.82507        29.48516         0.23030
C         50.10114        31.67036        -0.13957
C         48.86040        31.01127         0.40424
C         50.13328        33.15031        -0.36247
C         48.84611        33.84849        -0.01153
C         50.08949        35.93967         0.39509
C         48.85356        35.20652         0.19256
C         50.07478        37.33327         0.58452
C         48.84699        38.08635         0.44163
C         50.06473        40.21933         0.87278
C         48.84545        39.49704         0.56421
C         50.03457        41.62181         1.09417
C         48.74342        42.31701         1.27197
C         50.06408        44.66045         1.30313
C         48.73383        43.90123         1.30285
C         50.10742        45.83259         0.32335
C         48.88182        46.64900         0.14339
C         50.25719        48.61434        -0.40148
C         48.94989        48.00233        -0.25407
C         51.32889        25.21538        -0.63680
C         52.59094        27.34963        -0.27930
C         51.37938        26.65613        -0.47415
C         52.57853        28.79604        -0.13310
C         51.38451        29.48796        -0.04797
C         52.58290        31.67037         0.23908
C         51.39031        30.95823        -0.36938
C         52.51872        33.03740         0.52167
C         51.34468        33.81644         0.27829
C         52.51167        35.90954         0.95594
C         51.32239        35.19895         0.51798
C         52.47958        37.30761         1.13216
C         51.28864        38.05438         0.88250
C         52.58490        40.20938         0.98071
C         51.27590        39.46886         0.97528
C         52.46902        41.64429         1.41900
C         51.27208        42.36556         1.26218
C         52.56229        44.48086         1.09560
C         51.30478        43.79575         1.19920
C         52.64513        45.85720         0.71107
C         51.44033        46.50548         0.13039
C         51.41669        47.94029        -0.20177
C         55.03987        27.40346        -0.31024
C         53.87041        26.69894        -0.36428
C         55.05259        28.83063        -0.11359
C         53.82841        29.53225        -0.03576
C         55.05163        31.57923         0.56429
C         53.81800        30.92719         0.28600
C         55.03199        32.94772         1.12230
C         53.68569        33.71062         1.12828
C         54.93185        35.84527         1.51481
C         53.71239        35.17752         1.20930
C         54.93310        37.24022         1.76061
C         53.61923        37.97809         1.85399
C         54.92692        40.09913         1.87731
C         53.74811        39.45783         1.58255
C         54.99535        41.59264         1.92331
C         53.70234        42.36706         1.74411
C         55.02125        44.43789         1.34284
C         53.77012        43.78771         1.38781
C         55.05891        45.81958         1.05583
C         53.88736        46.50604         0.73849
C         56.26983        29.53383         0.04718
C         56.26261        30.87947         0.38383
C         56.24135        33.78232         1.15330
C         56.17902        35.10964         1.41893
C         56.10451        37.96150         2.10966
C         56.09045        39.33509         2.24181
C         56.24218        42.31949         1.62985
C         56.24456        43.66354         1.44791
O         42.11500        37.91743        -2.41282
O         42.68933        49.76091         0.72208
O         54.20644        33.04574         2.32547
O         39.56661        31.23160        -2.50303
O         44.27218        22.79150        -2.61902
O         48.61884        43.10482         2.51242
O         29.68248        38.79709         3.00179
O         29.59630        35.85803        -0.39543
O         36.35230        35.52072         1.29681
O         39.43520        35.72864        -2.47976
O         37.80039        41.05869        -1.95802
O         49.44522        28.84467         1.40346
O         50.83874        45.61431        -0.91172
O         33.05664        26.90110        -1.70698
O         45.03196        37.90170        -2.02931
O         54.27096        42.08744         3.10308
O         46.06452        43.11974         1.96091
O         35.79506        46.03140        -2.35137
O         30.82718        33.61573        -0.90357
O         35.30526        28.08277        -2.06648
O         37.75868        27.50954         1.31210
H         37.89645        26.60462         1.66812
O         40.42810        23.27168         1.65066
H         41.16637        23.88487         1.85794
O         31.02553        28.75222         2.42318
H         30.29984        28.34284         2.94229
O         48.90343        31.28873         1.84596
H         49.30904        30.48977         2.26472
O         42.93147        45.73806        -2.20478
H         42.18980        45.16556        -2.49840
O         35.10974        48.79786         0.31959
H         35.84844        49.34568         0.65957
O         51.63393        30.99678        -1.86076
H         52.55460        30.68376        -2.00331
O         47.27669        35.81573         1.87716
H         48.09546        36.07541         2.35136
O         38.78679        42.50659         1.29672
H         39.56156        42.96222         1.69012
O         53.23090        37.89955         3.29225
H         53.95553        38.31760         3.80634
O         34.61255        44.29851         1.70495
H         35.54941        44.02162         1.80899
O         33.32867        41.96895         2.44494
H         33.63127        42.90785         2.53664
O         41.79327        20.87376         1.54977
H         41.13856        21.51565         1.92197
O         52.96025        40.33366        -0.46039
H         52.18599        40.71114        -0.93157
O         43.66312        30.92490         1.27435
H         42.85098        30.39956         1.43928
O         31.81434        34.90298         2.33069
H         32.17427        35.69631         2.78217
O         33.97078        47.90280        -3.02525
H         33.24778        47.32121        -3.33821
O         49.06206        25.60618        -2.77023
H         49.90370        26.09183        -2.90535
O         50.29187        33.36583        -1.81812
H         50.86818        32.63432        -2.15464
O         50.13325        45.29629         2.61706
H         49.85993        44.61491         3.27270
H         27.19645        26.78459         1.59911
H         25.96245        28.90596         1.73270
H         25.90764        31.36401         1.68613
H         25.91426        33.24460         1.88715
H         25.91503        35.65696         2.15738
H         26.06821        37.70719         2.46896
H         26.10994        40.04838         2.44536
H         25.92558        41.89943         1.66643
H         25.81658        44.26376         0.96776
H         26.93753        46.36051         0.31894
H         29.19833        25.52493         0.97806
H         28.98209        47.61919        -0.21392
H         32.78441        23.37057        -0.06709
H         30.74979        24.57790         0.32321
H         32.59207        49.72933        -1.40935
H         30.65948        48.63195        -0.51195
H         34.48582        22.43138        -0.14526
H         34.41723        50.67334        -1.95372
H         36.61038        21.28043        -0.08831
H         36.49940        51.88591        -1.91978
H         40.37610        19.19987        -0.44474
H         38.27633        20.40904        -0.55618
H         40.32197        54.04825        -2.01812
H         38.17021        52.88997        -1.78433
H         42.89294        19.15638        -0.37405
H         42.81312        54.01544        -1.96946
H         44.70344        20.31263        -1.53626
H         44.93707        52.85907        -1.61919
H         48.58142        22.61702        -1.50912
H         46.49479        21.38361        -1.78338
H         48.67605        50.70051        -0.82406
H         46.61616        51.94194        -1.07217
H         50.18896        23.48123        -1.02235
H         50.31285        49.68232        -0.65358
H         52.23671        24.62490        -0.44953
H         52.36843        48.48692        -0.26656
H         56.00293        26.87774        -0.38423
H         53.91378        25.60900        -0.49352
H         56.02481        46.34362         1.03144
H         53.95744        47.56766         0.46460
H         57.22252        28.99232        -0.03726
H         57.21998        31.38724         0.56321
H         57.21907        33.31786         0.96234
H         57.12076        35.67301         1.46876
H         57.05142        37.42912         2.27503
H         57.00727        39.86186         2.53923
H         57.18247        41.75360         1.55688
H         57.19497        44.18912         1.27092
