         341
 CSIRO Nanostructure Databank - Neutral Graphene Oxide Data Set
C          1.36315         2.03116         0.73086
C          1.37858         3.46950         0.73502
C          2.52240         1.31261         0.75982
C          2.53458         4.18290         0.89609
C          1.38122         6.38476         1.25415
C          1.43212         7.75191         1.51082
C          2.55170         5.64323         0.98624
C          2.65724         8.44261         1.49044
C          1.55389        10.65131         2.15363
C          1.51259        11.99245         1.98478
C          2.82496         9.86217         2.01785
C          2.66453        12.77095         1.56888
C          1.50357        14.95296         1.94787
C          1.52017        16.32974         1.96432
C          2.64692        14.19697         1.54428
C          2.68054        17.05757         1.58108
C          2.70698        18.48496         1.61943
C          3.79929         1.98530         0.77592
C          3.83316         3.44668         1.17362
C          4.95485         1.30950         0.49191
C          5.05847         4.16386         0.65236
C          3.77776         6.34558         0.87820
C          3.81498         7.74042         1.11998
C          5.02911         5.62128         0.60649
C          5.15129         8.45641         1.12058
C          3.90144        10.63757         1.28440
C          3.84157        12.06607         1.18435
C          5.03995         9.95235         0.87818
C          4.99197        12.78664         0.72720
C          3.82117        14.91602         1.13363
C          3.83504        16.34243         1.15650
C          4.98738        14.21357         0.71703
C          5.00654        17.05979         0.73984
C          3.83983        19.18166         1.27282
C          5.02113        18.50653         0.83356
C          6.20215         2.00093         0.22471
C          6.19471         3.46370         0.29173
C          7.31560         1.31947        -0.18105
C          7.42017         4.16145        -0.07636
C          6.16716         6.32276         0.30627
C          6.07566         7.81439         0.07734
C          7.49297         5.61647         0.32251
C          7.39966         8.53255         0.02081
C          6.17891        10.65687         0.38877
C          6.16785        12.07693         0.34492
C          7.38624         9.93409         0.05838
C          7.34966        12.81477        -0.02238
C          6.14987        14.94081         0.28273
C          6.14019        16.36482         0.28228
C          7.32016        14.22069        -0.09699
C          7.25824        17.15751        -0.37403
C          6.20651        19.21755         0.59177
C          7.38807        18.56572         0.16031
C          8.51555         1.99574        -0.78112
C          8.49650         3.49614        -0.59020
C          9.85127         1.45514        -0.31335
C          9.70262         4.21895        -1.08513
C          8.59207         6.40283        -0.32700
C          8.57953         7.78038        -0.28469
C          9.76641         5.69399        -0.87567
C          9.86823         8.49705        -0.40563
C          8.58359        10.70328        -0.16840
C          8.57870        12.08349        -0.21315
C          9.86645         9.98333        -0.27860
C          9.88691        12.84205        -0.13670
C          8.50734        14.96212        -0.59983
C          8.57433        16.42646        -0.44826
C          9.80981        14.22841        -0.72414
C          9.78198        17.09419        -0.45057
C          8.61059        19.22041         0.09956
C          9.82892        18.53746        -0.21749
C         11.03604         2.06836        -0.73565
C         10.96334         3.41601        -1.43634
C         12.27531         1.42251        -0.74705
C         12.27277         4.18317        -1.28994
C         11.05747         6.41329        -0.95501
C         11.06669         7.76483        -0.88272
C         12.36188         5.65478        -0.92183
C         12.25606         8.56659        -1.36129
C         11.07408        10.73229        -0.67256
C         11.10056        12.09447        -0.63001
C         12.31509         9.94214        -0.74904
C         12.32227        12.83135        -0.91826
C         11.07590        14.99268        -0.73846
C         11.05217        16.39191        -0.62094
C         12.29823        14.28959        -0.92494
C         12.28592        17.10881        -0.61135
C         11.04538        19.20927        -0.21080
C         12.29680        18.53706        -0.41230
C         13.43804         1.98991        -1.53043
C         13.45047         3.50999        -1.42740
C         14.71396         1.37197        -1.02803
C         14.72460         4.23335        -1.48663
C         13.47830         6.36567        -1.70153
C         13.57079         7.82941        -1.33101
C         14.78093         5.61018        -1.56390
C         14.77526         8.50719        -1.31609
C         13.59404        10.69446        -0.89124
C         13.51156        12.14267        -1.09369
C         14.82345         9.95576        -1.23590
C         14.74427        12.81639        -1.51202
C         13.49852        15.01664        -1.03928
C         13.51355        16.41958        -0.80988
C         14.74132        14.34161        -1.44728
C         14.76419        17.13107        -0.79156
C         13.51583        19.21910        -0.38566
C         14.76149        18.54209        -0.55929
C         15.92823         2.03734        -1.04507
C         15.96532         3.43662        -1.54307
C         17.14697         1.42059        -0.67086
C         17.28712         4.18376        -1.52549
C         16.03438         6.34799        -1.54935
C         16.03855         7.77420        -1.43058
C         17.26565         5.65767        -1.49405
C         17.26267         8.47245        -1.40265
C         16.01458        10.67533        -1.29504
C         16.02116        12.09346        -1.38054
C         17.32107         9.95315        -1.07930
C         17.24197        12.83554        -1.32389
C         16.03152        15.00887        -1.20606
C         16.00858        16.44966        -0.96606
C         17.20131        14.28077        -1.16763
C         17.21510        17.16142        -0.92677
C         15.99603        19.22999        -0.47555
C         17.22281        18.55834        -0.64290
C         18.39491         2.11060        -0.64070
C         18.47363         3.49757        -0.99606
C         19.55746         1.46544        -0.16597
C         19.67409         4.22966        -0.82459
C         18.50140         6.35552        -1.43446
C         18.48415         7.77695        -1.49052
C         19.73136         5.63426        -1.17394
C         19.75079         8.51185        -1.70413
C         18.46656        10.69301        -1.77482
C         18.47605        12.15311        -1.36342
C         19.78202         9.98724        -1.56562
C         19.72420        12.85964        -1.23698
C         18.46864        14.99897        -0.76368
C         18.49668        16.44129        -1.28621
C         19.72617        14.24953        -1.09434
C         19.74510        17.13423        -0.78139
C         18.47880        19.24017        -0.47718
C         19.69733        18.56348        -0.46607
C         20.77127         2.17799         0.04887
C         20.82579         3.57967        -0.31078
C         21.87320         1.55583         0.64175
C         22.05393         4.30635        -0.14280
C         20.96452         6.31781        -1.09348
C         21.04134         7.71769        -1.57609
C         22.12346         5.68629        -0.57167
C         22.30038         8.49002        -1.33787
C         20.95016        10.69863        -1.34431
C         20.96638        12.12689        -1.20417
C         22.25111         9.98735        -1.23819
C         22.19531        12.83896        -0.90809
C         20.99611        15.03236        -1.28813
C         20.90948        16.43251        -0.71432
C         22.21141        14.25394        -0.85729
C         22.11814        17.04575        -0.04700
C         20.93140        19.24222        -0.24352
C         22.15064        18.55870        -0.14971
C         23.04615         2.34113         1.13849
C         23.14824         3.68927         0.47248
C         24.35431         1.57445         1.13301
C         24.38585         4.43648         0.67504
C         23.35694         6.42097        -0.42067
C         23.43751         7.79175        -0.71563
C         24.52670         5.77138         0.09045
C         24.64042         8.52355        -0.47902
C         23.31872        10.64541        -0.38894
C         23.39121        12.12712        -0.61601
C         24.64486         9.93352        -0.47787
C         24.61586        12.80487        -0.36620
C         23.42370        14.95957        -0.57921
C         23.40393        16.37047        -0.42424
C         24.63916        14.21753        -0.40188
C         24.68732        17.14796        -0.48246
C         23.36794        19.23795         0.03034
C         24.61776        18.57030         0.03368
C         25.57212         2.20108         1.17180
C         25.64627         3.68070         1.04701
C         26.81137         1.52397         1.46177
C         26.94186         4.31147         0.73194
C         25.78036         6.39867         0.05985
C         25.85926         7.80647        -0.22959
C         26.98584         5.64185         0.31177
C         27.07746         8.51043        -0.16624
C         25.84345        10.64865        -0.21315
C         25.81520        12.05088        -0.08450
C         27.10191         9.92589        -0.11879
C         26.98281        12.71129         0.58732
C         25.95408        14.94648        -0.32408
C         25.76231        16.34924         0.28417
C         27.08608        14.19352         0.33619
C         27.05869        17.08633         0.41193
C         25.81668        19.21009         0.31265
C         27.07130        18.49078         0.42488
C         28.01402         2.21077         1.55200
C         28.12733         3.58580         1.09266
C         29.19744         1.58978         2.10053
C         29.36046         4.24445         1.15632
C         28.27859         6.26330        -0.00531
C         28.34583         7.74640        -0.25670
C         29.54424         5.54481         0.49947
C         29.66949         8.45629        -0.26590
C         28.32631        10.63305         0.07824
C         28.30154        11.99818         0.39539
C         29.68641        10.00188        -0.20818
C         29.49334        12.70148         0.73869
C         28.23501        14.84884         0.66978
C         28.19843        16.32106         1.01045
C         29.46710        14.12085         0.94170
C         29.51599        17.02184         0.92973
C         28.30629        19.16231         0.62822
C         29.52596        18.44111         0.80255
C         30.34702         2.29687         2.30212
C         30.46523         3.66802         1.86365
C         31.59184         4.45297         2.10420
C         30.73870         6.34798         0.79588
C         30.97162         7.64224        -0.00793
C         31.69658         5.78480         1.61145
C         32.05174         8.47891         0.61704
C         30.77335        10.58707         0.66687
C         30.71656        11.96600         0.95760
C         31.93476         9.79510         0.93273
C         31.83932        12.69746         1.46892
C         30.65137        14.82518         1.24109
C         30.70120        16.29097         1.14932
C         31.81825        14.06761         1.56164
C         31.92339        17.00017         1.19930
C         30.77474        19.11425         0.87176
C         31.94708        18.39256         1.06357
O         29.12783         5.51703        -0.91781
O         29.04976         8.04395        -1.52814
O         10.16585         9.14373         0.91010
O         14.63111        13.63588        -2.72799
O         16.73900         3.60473        -2.77221
O         13.12958        10.16252         0.43778
O          9.38891         5.11214        -2.22537
O         20.46233         7.96015        -2.88388
O         22.71826         9.35979        -2.45805
O         24.88650         4.38461         2.09559
O          8.98451        14.41038        -1.90162
O         13.25936         1.61595        -2.93133
H         12.42646         2.05227        -3.23488
O          3.35643         9.66555         3.38832
H          3.41325        10.55196         3.80556
O         10.12348        13.06482         1.29389
H         10.30044        12.19228         1.70742
O          6.82612        17.31340        -1.77517
H          5.99122        17.82823        -1.76503
O          5.74335         8.27381         2.43313
H          5.08606         8.62748         3.08116
O         21.94381        16.75320         1.38991
H         21.06707        17.10743         1.65234
O         18.44686        15.11159         0.69936
H         18.44242        14.20339         1.06964
O         18.17128        10.64282        -3.19996
H         18.96069        10.95676        -3.68890
O         17.59690        10.04035         0.35082
H         16.84181         9.63837         0.83054
O         18.56546        16.36095        -2.74343
H         18.43673        17.26441        -3.10195
O          3.96708         3.46085         2.64035
H          4.82257         3.03351         2.85848
O         30.02873        10.44610        -1.55752
H         29.60466         9.80405        -2.17328
O         25.02232        17.30597        -1.88589
H         25.46972        16.48193        -2.20034
O         10.83394         3.09523        -2.86355
H         10.50826         3.92419        -3.29283
O          7.88085         5.57579         1.75700
H          7.57556         6.41582         2.16787
O         22.85105        10.47291         0.99859
H         23.48929        10.93459         1.58420
O         26.68110        12.60745         2.04083
H         27.39202        13.09179         2.51489
O         31.46639         7.19004        -1.28677
H         30.68780         6.81677        -1.76512
O         13.09365         6.32068        -3.11704
H         13.90432         6.44912        -3.65467
O         25.23710        16.17255         1.62205
H         26.00202        15.98160         2.21937
O         26.41888        15.09729        -1.71404
H         26.46352        14.20236        -2.11351
O         21.12071        15.21231        -2.74870
H         20.26151        15.60361        -3.05293
O         11.95157         8.82035        -2.77457
H         12.08180         7.95980        -3.24616
O         22.78786         2.62077         2.57668
H         23.49139         3.26254         2.84718
O          5.46109         8.01336        -1.23056
H          4.62533         7.50004        -1.25044
O          8.45086         1.70777        -2.21856
H          9.24946         2.11553        -2.64047
O         12.78547         5.69275         0.47531
H         12.03459         5.41767         1.04156
O         27.86466        16.28002         2.48677
H         27.99987        17.19193         2.82762
H          0.39442         1.51760         0.65582
H          0.42092         3.98954         0.58618
H          2.50492         0.21594         0.67207
H          0.41351         5.87006         1.33115
H          0.50181         8.27545         1.77024
H          0.65109        10.13198         2.50608
H          0.56172        12.51312         2.16710
H          0.58800        14.43356         2.26076
H          0.62641        16.88483         2.28469
H          1.80636        19.02252         1.95017
H          4.91774         0.22471         0.30397
H          3.85346        20.27972         1.33261
H          7.28099         0.22049        -0.24068
H          6.23932        20.29535         0.81422
H          9.90142         0.44753         0.12874
H          8.66477        20.28476         0.37801
H         12.35305         0.40008        -0.34644
H         11.05742        20.29429        -0.02493
H         14.68496         0.31883        -0.70756
H         13.52354        20.30619        -0.21481
H         17.12640         0.36930        -0.34656
H         15.99730        20.30798        -0.25556
H         19.50396         0.40524         0.12207
H         18.46412        20.32070        -0.27021
H         21.80605         0.49111         0.91286
H         20.92580        20.34183        -0.18844
H         24.30618         0.48466         1.28465
H         23.34818        20.32952         0.18185
H         26.77419         0.45802         1.73295
H         25.81591        20.28377         0.55762
H         29.13180         0.54007         2.42288
H         28.33548        20.26113         0.60632
H         31.21446         1.82295         2.78410
H         32.42970         4.03674         2.68122
H         32.61045         6.34339         1.85669
H         33.02034         7.98663         0.78287
H         32.80040        10.28126         1.40614
H         32.76754        12.16819         1.72228
H         32.72894        14.58681         1.89004
H         32.87240        16.46631         1.34058
H         30.80559        20.20830         0.77019
H         32.91003        18.92060         1.10916
