         618
 CSIRO Nanostructure Databank - Neutral Graphene Oxide Data Set
C         24.22123        68.42622        -4.44875
C         24.08622        69.91116        -4.77497
C         23.17379        70.33703        -5.74842
C         24.04869        72.59734        -5.63271
C         23.13995        71.67443        -6.15380
C         25.88256        64.93203        -1.41932
C         25.88784        66.21867        -2.02390
C         24.73943        66.81392        -2.50271
C         25.91988        69.04354        -2.70993
C         24.62906        68.24551        -2.96811
C         25.98997        70.43423        -3.23659
C         24.94157        70.87029        -4.18849
C         26.01115        73.15935        -4.11983
C         24.97281        72.19670        -4.65811
C         28.12521        61.11913         0.65591
C         28.17956        62.42539         0.14560
C         27.01608        63.05028        -0.35280
C         28.32913        65.04416        -0.95624
C         27.05847        64.33837        -0.91938
C         28.40768        66.32134        -1.55180
C         27.20922        66.87404        -2.20530
C         28.46268        69.10178        -2.42924
C         27.22539        68.32694        -2.59012
C         28.47248        70.49193        -2.83258
C         27.28952        71.13181        -3.29927
C         28.51393        73.18109        -3.74013
C         27.31558        72.47042        -3.74768
C         30.30256        57.15980         2.47679
C         30.38283        58.47179         2.03412
C         29.22219        59.14490         1.57285
C         30.55619        61.17064         1.12655
C         29.28837        60.47315         1.13074
C         30.62203        62.49442         0.60101
C         29.44636        63.12256         0.11345
C         30.75886        65.13292        -0.46408
C         29.50206        64.43924        -0.41979
C         30.79467        66.49480        -0.95535
C         29.60736        67.07813        -1.50272
C         30.85232        69.17706        -1.88751
C         29.62956        68.44580        -1.98155
C         30.95897        70.49887        -2.58842
C         29.67661        71.21964        -2.83126
C         30.92923        73.31917        -3.21481
C         29.72074        72.58396        -3.26401
C         32.81217        53.13005         1.61302
C         32.73337        54.33284         2.39869
C         31.59382        55.08769         2.28414
C         32.79204        57.15450         2.84046
C         31.48286        56.40700         2.98711
C         32.80516        58.51961         2.56502
C         31.64215        59.19283         2.09482
C         33.00142        61.22450         1.58801
C         31.72033        60.53167         1.62812
C         33.06948        62.53926         1.01529
C         31.88804        63.18003         0.52982
C         33.26844        65.13918        -0.29274
C         31.93036        64.49602        -0.01170
C         33.21241        66.64778        -0.36092
C         31.98250        67.26363        -0.82309
C         33.18002        69.43306        -1.07547
C         31.96982        68.63542        -1.23811
C         33.24472        70.72317        -1.52120
C         32.01009        71.38900        -1.99187
C         33.33447        73.55459        -2.30478
C         32.04763        72.84676        -2.40317
C         35.19682        48.91743         0.79370
C         35.21777        50.17055         1.48096
C         34.10026        51.01122         1.13263
C         35.30110        52.76763         3.05297
C         33.63735        52.04787         1.93747
C         35.23994        54.18752         3.35303
C         33.88364        54.93624         3.17126
C         35.23359        57.06334         3.23590
C         33.99730        56.41500         3.07749
C         35.26445        58.56169         3.22060
C         33.98296        59.36775         2.97641
C         35.42169        61.27895         2.07564
C         34.15247        60.60249         2.10320
C         35.47288        62.65197         1.60164
C         34.32173        63.26059         1.05008
C         35.55307        65.36592         0.74623
C         34.38949        64.60786         0.57116
C         35.57858        66.77653         0.37515
C         34.35920        67.38364        -0.13712
C         35.56769        69.62448        -0.32865
C         34.26076        68.89027        -0.16944
C         35.60499        70.91216        -0.76513
C         34.54842        71.43580        -1.70258
C         35.72412        73.65837        -1.77045
C         34.49098        72.94529        -1.85385
C         37.49483        44.54968         0.34165
C         37.50615        45.88356         0.72835
C         36.31743        46.65885         0.41309
C         37.72361        48.61402         2.01270
C         35.97843        47.79928         1.13449
C         37.65295        50.01548         2.11046
C         36.38373        50.71233         2.17478
C         37.68736        52.83009         2.79137
C         36.44357        52.09892         2.61411
C         37.71936        54.19966         3.08965
C         36.49447        54.94910         3.27329
C         37.75859        57.10280         3.58338
C         36.46598        56.34552         3.33712
C         37.81891        58.39492         2.73427
C         36.57642        59.24770         3.01042
C         37.86079        61.38831         2.77537
C         36.58350        60.64274         2.51201
C         37.89694        62.75372         2.12682
C         36.70341        63.38344         1.67971
C         37.93337        65.50708         1.46574
C         36.73216        64.75719         1.29221
C         37.94109        66.92622         1.12777
C         36.73089        67.52529         0.59082
C         37.86826        69.80740         0.68196
C         36.85577        68.91075         0.00097
C         37.93932        71.23530         0.22453
C         36.75623        71.80272        -0.49783
C         38.10977        73.77745        -1.09595
C         36.88892        73.09762        -1.20527
C         39.91957        40.25148        -0.68055
C         39.85846        41.60956        -0.19542
C         38.69295        42.32775        -0.13908
C         39.97691        44.42037         0.65238
C         38.65421        43.67873         0.46930
C         39.97995        45.87503         0.86267
C         38.76684        46.53131         1.14248
C         40.09662        48.62045         1.55432
C         38.85934        47.91088         1.55745
C         40.12050        50.00484         1.94387
C         38.91057        50.68802         2.17525
C         40.26612        52.72320         2.89806
C         38.93693        52.04416         2.73831
C         40.28590        54.18455         3.21692
C         38.99022        54.93237         3.21078
C         40.28258        57.03284         3.71616
C         39.00575        56.28890         3.35582
C         40.24579        58.52943         3.37211
C         39.11845        59.16029         2.95929
C         40.35169        61.40278         2.77642
C         39.12646        60.58446         2.42215
C         40.34613        62.76135         2.55108
C         39.11179        63.45137         2.14651
C         40.31320        65.62552         2.24543
C         39.10299        64.85229         1.91070
C         40.32706        67.09341         1.85678
C         39.11377        67.66472         1.24765
C         40.39922        69.83532         0.84835
C         39.13372        69.13436         1.08596
C         40.43986        71.17167         0.37469
C         39.24600        71.88111         0.05247
C         40.52262        73.87812        -0.53865
C         39.28719        73.19105        -0.51554
C         42.16472        36.27501        -2.51919
C         42.26944        37.58158        -1.76238
C         41.11295        38.22126        -1.37182
C         42.39000        40.10918        -0.33578
C         41.09229        39.52962        -0.77037
C         42.43748        41.56675         0.01204
C         41.14074        42.29216         0.15676
C         42.45906        44.46159         0.22527
C         41.14599        43.78825        -0.06382
C         42.46306        45.83412         0.56605
C         41.24309        46.54870         0.88504
C         42.55619        48.62234         1.29227
C         41.30046        47.92720         1.23170
C         42.58442        50.02777         1.60251
C         41.38859        50.72122         1.96453
C         42.65121        52.86018         2.10150
C         41.45986        52.09017         2.31293
C         42.76434        54.24613         2.45229
C         41.58856        54.92768         3.04443
C         42.74462        57.07567         3.08948
C         41.54477        56.39844         3.13476
C         42.80830        58.52067         3.50026
C         41.48627        59.27318         3.87091
C         42.83108        61.40589         3.02418
C         41.52579        60.83489         3.57061
C         42.79341        62.83820         2.86936
C         41.59246        63.52974         2.68855
C         42.78808        65.70288         2.39172
C         41.60734        64.94822         2.44792
C         42.81419        67.06142         1.86756
C         41.62601        67.71722         1.56598
C         42.94355        69.72360         0.66050
C         41.61656        69.01689         0.87084
C         42.92562        71.18983         0.46723
C         41.70243        71.85774         0.22679
C         42.96410        73.94477        -0.13019
C         41.72761        73.24600        -0.13823
C         44.67300        33.54602        -3.39950
C         43.46945        34.22249        -3.14306
C         44.71209        36.20532        -2.48081
C         43.47766        35.54746        -2.69931
C         44.73821        37.53454        -1.91942
C         43.56761        38.17049        -1.54735
C         44.86092        40.28604        -1.02251
C         43.65633        39.44714        -0.79413
C         44.80650        41.68187        -0.79393
C         43.65956        42.34701        -0.30101
C         44.87871        44.51607        -0.19138
C         43.65287        43.76423        -0.09603
C         44.91969        45.86809         0.21099
C         43.70937        46.54276         0.61087
C         45.03981        48.58773         1.07700
C         43.73939        47.90437         0.99072
C         45.06218        50.08353         1.25735
C         43.78149        50.79086         1.45023
C         44.90447        53.00557         0.99302
C         43.78705        52.17932         1.57181
C         45.13720        54.32943         1.71071
C         44.00418        54.97484         2.34670
C         45.17231        57.13003         2.94754
C         43.97644        56.36338         2.79689
C         45.27699        58.51118         2.78426
C         44.07604        59.27876         3.17126
C         45.29935        61.43320         2.72778
C         44.03805        60.73736         2.95255
C         45.30768        62.82136         2.82616
C         44.06096        63.55720         3.01538
C         45.34065        65.73873         2.44303
C         44.05969        65.08362         2.78669
C         45.32418        67.10149         2.01920
C         44.09214        67.75127         1.69308
C         45.37935        69.77503         1.10340
C         44.15134        69.07073         1.19857
C         45.39496        71.12465         0.50916
C         44.13947        71.88492         0.41066
C         45.42412        74.00562         0.26023
C         44.17501        73.29245         0.16105
C         45.89129        34.19327        -3.23760
C         47.18095        36.23347        -2.67640
C         45.93715        35.52903        -2.77353
C         47.25314        37.53879        -2.20554
C         46.06260        38.12741        -1.47852
C         47.21596        40.34906        -1.75525
C         46.04300        39.64189        -1.47845
C         47.17533        41.81949        -1.79816
C         45.95378        42.50431        -1.22899
C         47.27483        44.55460        -0.71259
C         46.05704        43.88866        -0.70907
C         47.36588        45.91193        -0.25947
C         46.16891        46.57882         0.15660
C         47.41347        48.69215         0.32281
C         46.22747        47.94519         0.49709
C         47.40918        50.12775         0.37861
C         46.23182        50.83594         0.76784
C         47.31830        52.94279         0.24898
C         46.18091        52.22562         0.72803
C         47.30671        54.36026         0.42441
C         46.37138        54.94273         1.33484
C         47.66147        57.10036         1.30585
C         46.80051        56.18410         1.90385
C         47.76741        58.48430         1.80660
C         46.55197        59.21161         2.57677
C         47.70745        61.38440         2.16146
C         46.53588        60.68895         2.50219
C         47.67073        62.86295         2.16260
C         46.60541        63.57865         2.96612
C         47.77738        65.74166         2.38114
C         46.54838        65.04691         2.56488
C         47.78264        67.13712         2.16019
C         46.55648        67.81138         1.91126
C         47.85054        69.89710         1.44309
C         46.58668        69.17423         1.49706
C         47.89073        71.22221         1.05514
C         46.69490        71.89260         0.51997
C         47.84591        74.08255         0.77124
C         46.63727        73.37386         0.50822
C         48.45223        38.28694        -2.26164
C         49.68603        40.41189        -2.05042
C         48.46552        39.67219        -2.01568
C         49.74446        41.79328        -1.88008
C         48.47305        42.61516        -1.94351
C         49.83014        44.50124        -0.87976
C         48.52342        43.80264        -0.99509
C         49.85688        46.01510        -0.80672
C         48.59227        46.61616        -0.25699
C         49.85565        48.72833        -0.14185
C         48.62279        48.00321        -0.00608
C         49.79633        50.11661        -0.31784
C         48.54905        50.83528        -0.10591
C         49.58934        52.98882        -0.84126
C         48.47069        52.24737        -0.22450
C         49.60447        54.49248        -0.77598
C         48.39436        55.19252        -0.12515
C         49.73352        57.27874        -0.02658
C         48.57382        56.58300         0.32383
C         49.78035        58.74375         0.19943
C         48.70041        59.38442         1.06647
C         50.00940        61.50713         1.21535
C         48.85486        60.77575         1.55601
C         50.14953        62.87604         1.53571
C         48.93120        63.61348         1.85367
C         50.24513        65.66875         2.19985
C         49.02941        65.02635         2.23672
C         50.25720        67.11997         2.48401
C         49.02466        67.86337         2.14494
C         50.33886        69.94816         1.87815
C         49.07439        69.21167         1.82735
C         50.36234        71.33345         1.52983
C         49.18912        71.93757         0.81122
C         50.26771        74.16299         1.14199
C         49.07402        73.44078         0.97008
C         50.97230        42.49774        -1.82116
C         52.22406        44.61233        -1.46284
C         51.04368        43.85552        -1.45032
C         52.29952        45.93745        -0.95250
C         51.15486        46.46039        -0.08753
C         52.46321        48.81768        -0.09193
C         51.14893        48.01121         0.26639
C         52.20901        50.15869        -0.75989
C         51.00651        50.83163        -0.67810
C         52.13669        53.08434        -1.09218
C         50.90900        52.26416        -1.06758
C         52.13084        54.48791        -0.99654
C         50.88523        55.22150        -0.79742
C         52.10327        57.39548        -0.79244
C         50.88100        56.59950        -0.54791
C         52.21369        58.77662        -0.25331
C         51.07810        59.44080         0.12738
C         52.46999        61.39533         0.90735
C         51.12040        60.93710         0.35450
C         52.54372        62.90481         1.01550
C         51.38706        63.58690         1.41748
C         52.66107        65.69994         1.65818
C         51.46404        65.00137         1.77527
C         52.86088        67.08029         2.29272
C         51.55830        67.85788         2.51401
C         52.81594        70.04760         2.47217
C         51.52355        69.30649         2.24709
C         52.76252        71.48808         2.00965
C         51.56726        72.08932         1.63510
C         52.70396        74.26741         1.29665
C         51.51494        73.53255         1.35578
C         53.45177        46.67768        -1.15865
C         54.70803        48.74649        -1.14472
C         53.55149        48.05643        -0.83841
C         54.75285        50.18348        -1.01884
C         53.42878        50.84930        -1.20064
C         54.65073        53.09695        -1.02009
C         53.40401        52.38218        -1.27139
C         54.61886        54.47908        -0.95626
C         53.38239        55.18504        -1.05467
C         54.66422        57.37129        -0.95305
C         53.37921        56.65544        -1.12652
C         54.72080        58.68011        -0.57793
C         53.52312        59.43643        -0.22295
C         54.89068        61.48049         0.11107
C         53.63387        60.75119         0.19512
C         54.90981        62.90377         0.38751
C         53.77922        63.59292         0.84175
C         54.95873        65.77936         0.77159
C         53.83633        65.04387         1.10685
C         54.91253        67.28396         0.67202
C         53.90173        67.94001         1.58754
C         55.23444        70.01187         1.59670
C         53.96045        69.27842         1.80251
C         55.27944        71.50983         1.78919
C         54.02357        72.30495         2.16159
C         55.13999        74.30105         1.11364
C         53.96959        73.65139         1.46665
C         55.90946        50.89700        -0.93325
C         57.07847        53.07850        -1.39601
C         55.94391        52.37931        -0.70149
C         57.11154        54.45623        -1.41021
C         55.94243        55.21412        -0.78443
C         57.16545        57.31458        -1.34000
C         55.85375        56.59090        -1.43800
C         57.22208        58.66707        -1.01475
C         56.06484        59.29711        -0.25863
C         57.37728        61.48360        -0.23971
C         56.04137        60.80100        -0.25786
C         57.23404        62.96765        -0.59593
C         56.22653        63.65046         0.34442
C         57.40698        65.81936         0.04601
C         56.05966        65.12560        -0.03209
C         57.44613        67.22616         0.26420
C         56.27442        67.95167         0.65519
C         57.59854        70.01966         0.76435
C         56.37295        69.31461         0.94241
C         57.68123        71.46270         1.06794
C         56.44866        72.23840         1.26648
C         57.56848        74.32968         0.58846
C         56.41027        73.62086         1.03876
C         58.23482        55.18280        -1.88700
C         59.54359        57.31308        -1.93410
C         58.33511        56.60118        -1.75225
C         59.59669        58.71110        -1.72686
C         58.42350        59.36810        -1.24591
C         59.67247        61.59737        -1.37248
C         58.39862        60.83043        -1.15289
C         59.72416        62.97427        -0.82190
C         58.57969        63.67266        -0.51643
C         59.83287        65.80398        -0.29566
C         58.59860        65.09860        -0.20539
C         59.86265        67.21488        -0.27205
C         58.67535        67.93355         0.07700
C         59.89806        70.07727        -0.21104
C         58.72946        69.34822         0.25110
C         59.89842        71.46893        -0.21223
C         58.89614        72.23202         0.53416
C         59.88398        74.37529        -0.26002
C         58.77048        73.68759         0.27530
C         60.81961        59.45714        -1.86745
C         62.14635        61.53362        -1.61879
C         60.91779        60.83028        -1.61069
C         62.24255        62.89889        -1.25032
C         61.05907        63.56084        -0.65077
C         62.31110        65.78578        -0.82667
C         61.10267        65.07431        -0.41429
C         62.28058        67.19941        -0.89219
C         61.07593        67.91901        -0.58466
C         62.21307        70.02068        -1.13334
C         61.05947        69.34050        -0.68412
C         62.14482        71.45932        -1.41842
C         60.90306        72.22734        -0.95853
C         62.20421        74.33550        -1.12267
C         61.01923        73.69127        -0.76283
C         63.42846        63.63026        -1.36233
C         64.67156        65.77001        -1.45775
C         63.48763        65.05333        -1.17959
C         64.69122        67.18740        -1.46839
C         63.47354        67.90560        -1.22337
C         64.62818        70.02020        -1.70963
C         63.44635        69.32444        -1.34452
C         64.58275        71.46669        -1.95232
C         63.37826        72.22297        -1.61497
C         64.65128        74.32471        -1.54246
C         63.39782        73.62521        -1.49955
C         65.87930        67.91844        -1.71830
C         67.10670        70.06310        -1.86191
C         65.87356        69.32794        -1.81089
C         67.15428        71.45691        -1.79353
C         65.91740        72.23459        -1.99525
C         67.12273        74.30393        -1.39398
C         65.87899        73.66660        -1.64718
C         68.34423        72.18521        -1.53233
C         68.31457        73.57362        -1.36718
O         36.01089        59.12889         4.35835
O         39.38196        43.70565         1.75794
O         61.05517        71.81289        -2.35228
O         36.61043        47.88292         2.40014
O         43.18287        39.29627         0.59077
O         48.54358        55.07252        -1.58648
O         58.79404        71.85278         1.94505
O         49.96705        52.50311        -2.17230
O         27.38952        67.27552        -3.62757
O         41.14454        54.39229         4.37152
O         44.08875        64.51668         4.13823
O         53.36538        51.50307        -2.48931
O         58.67454        61.45442        -2.44087
O         46.21309        71.24542        -0.71924
O         50.88355        67.48464         3.77739
O         38.14651        69.70184         2.08702
O         48.60188        59.39984        -0.40185
O         47.75035        58.67553         3.22806
O         41.35502        59.14827         5.27393
O         31.43708        70.19149        -4.04068
O         46.14581        42.36839        -2.70290
O         31.53503        72.37228        -1.04873
O         49.31007        43.71154         0.24024
O         43.76825        58.81425         4.55160
O         53.04506        49.34488         1.09241
O         65.20684        71.88888        -3.21693
O         55.66860        70.60735         2.88580
O         42.31913        68.98599        -0.43994
O         34.29732        54.44440         4.45746
O         34.14206        52.05792         3.27331
O         52.55263        57.25351        -2.18746
O         41.84467        41.85610         1.33957
O         45.33853        49.19107         2.39363
O         61.31614        64.10087         0.67628
O         46.35579        56.42502         3.19632
O         25.67156        70.14699        -1.79091
O         36.93862        72.03574         0.95628
O         39.67136        52.00090         4.03034
O         47.85603        63.41502         0.82730
O         40.09679        66.67781         3.24888
O         33.61508        64.70989        -1.66894
H         33.64854        63.72928        -1.66632
O         56.16137        52.57068         0.76098
H         55.63101        51.89116         1.23264
O         46.98691        63.51850         4.36600
H         46.21923        63.83807         4.89079
O         57.90032        61.32488         1.11815
H         57.57612        60.45263         1.45392
O         35.02518        70.98271        -3.03252
H         34.25931        70.59539        -3.52073
O         49.98862        46.49541        -2.17579
H         49.23647        46.15222        -2.70287
O         33.80878        69.24010         1.18651
H         33.79093        70.21856         1.25986
O         37.76184        58.00828         1.33659
H         38.05076        58.79738         0.81568
O         51.26023        45.71296         1.12634
H         51.18101        46.36975         1.86655
O         31.29219        56.15654         4.41816
H         31.42226        57.00506         4.89201
O         54.37787        67.54851        -0.70182
H         53.45828        67.20451        -0.72984
O         37.91962        61.59280         4.21200
H         37.09951        62.04332         4.50122
O         46.23286        37.73843        -0.07611
H         46.20243        36.75954        -0.03254
O         40.90709        43.97591        -1.49940
H         41.07644        44.91663        -1.71769
O         33.56982        59.90499         4.27498
H         34.39248        59.95766         4.82085
O         52.52815        60.88757         2.27712
H         53.36845        61.19221         2.68027
O         56.75234        63.67267         1.69066
H         57.20533        62.80679         1.85348
O         48.48032        43.20973        -3.27482
H         47.55118        43.16171        -3.60755
O         39.10290        60.44271         0.95609
H         40.00474        60.19872         0.65895
O         44.39543        53.37376        -0.35271
H         45.12601        53.83406        -0.82062
O         53.43547        66.79956         3.59536
H         52.71309        66.91146         4.25654
O         51.03073        48.09164         1.70449
H         51.80354        48.67783         1.97979
O         37.75581        57.45322         4.98340
H         38.65132        57.24963         5.36409
O         56.72295        62.96092        -1.93654
H         56.41749        63.86954        -2.16757
O         56.34602        58.94116         1.15869
H         56.36567        57.95839         1.21659
O         55.62039        65.25742        -1.42165
H         55.29639        66.18907        -1.53196
O         32.69041        69.47856        -3.96079
H         32.43304        68.54629        -4.16592
O         54.14814        72.60609         3.59127
H         55.07264        72.88901         3.75734
O         53.04022        70.05584         3.91127
H         53.75275        70.71801         4.08752
O         49.46590        71.71199        -0.62574
H         48.61510        71.81097        -1.10739
O         41.40837        61.51413         4.84374
H         41.34125        60.78698         5.52724
O         50.95389        61.53201        -0.95845
H         50.08608        61.23657        -1.31023
O         23.55177        68.82779        -2.20137
H         23.95077        69.53759        -1.64104
O         25.19180        67.84492        -5.32445
H         25.97802        67.53885        -4.80789
O         56.19439        55.39183         0.62551
H         56.29705        54.48261         1.00554
O         37.48653        68.68730        -1.31670
H         36.83713        68.23150        -1.89378
O         55.61541        56.32534        -2.84839
H         55.35078        57.16249        -3.28408
O         26.24650        74.22553        -5.04025
H         26.55634        73.84042        -5.88517
O         40.36454        56.85515         5.15220
H         40.89639        57.63915         5.51098
O         41.18227        35.42012        -1.92168
H         41.45064        35.24539        -0.99643
H         24.05616        73.63681        -5.98966
H         25.60561        73.63363        -3.18269
H         28.51884        74.23248        -4.06281
H         30.98550        74.31161        -3.68522
H         33.36027        74.61861        -2.58773
H         35.75079        74.70420        -2.11438
H         38.20192        74.78000        -1.54054
H         40.55699        74.91429        -0.90640
H         42.97149        75.01804        -0.37130
H         45.39833        75.10376         0.19370
H         47.80739        75.18159         0.82754
H         50.24138        75.26156         1.06945
H         52.66543        75.32505         0.99346
H         55.08581        75.33406         0.73771
H         57.47807        75.41044         0.40582
H         59.86671        75.47513        -0.28915
H         62.27087        75.42690        -0.99971
H         64.64626        75.40546        -1.33484
H         67.13899        75.38409        -1.18989
H         23.23077        67.92456        -4.62163
H         22.49168        69.60752        -6.20792
H         22.41429        71.99496        -6.91451
H         24.93062        64.38796        -1.33199
H         23.78612        66.27449        -2.39274
H         27.16715        60.57958         0.66877
H         26.05950        62.50878        -0.31540
H         29.32337        56.65883         2.50702
H         28.26153        58.61044         1.55259
H         32.14126        53.04691         0.74503
H         30.75780        54.72676         1.66724
H         34.47272        48.81191        -0.02824
H         33.55773        50.78248         0.20354
H         36.59072        44.14345        -0.13681
H         35.69356        46.32918        -0.43116
H         38.98081        39.78397        -1.01619
H         37.74441        41.87218        -0.46225
H         41.77691        36.51312        -3.55221
H         40.14787        37.73862        -1.58961
H         44.64723        32.50439        -3.74838
H         42.50708        33.71178        -3.28656
H         46.83169        33.67104        -3.46438
H         48.08811        35.75022        -3.07151
H         49.37728        37.79397        -2.59819
H         50.62725        39.84768        -2.14332
H         51.90658        41.94790        -2.01782
H         53.12576        44.18564        -1.93215
H         54.29854        46.20973        -1.68868
H         55.59181        48.21387        -1.52979
H         56.86696        50.35993        -0.85084
H         57.88922        52.48866        -1.84936
H         59.10778        54.62000        -2.25209
H         60.45097        56.77370        -2.24231
H         61.73499        58.90073        -2.12015
H         63.06288        61.00206        -1.91701
H         64.33106        63.12287        -1.73467
H         65.59017        65.21829        -1.70520
H         66.82992        67.37586        -1.82860
H         68.04726        69.49461        -1.80274
H         69.29449        71.64193        -1.43056
H         69.25573        74.10293        -1.16147
