         324
 CSIRO Nanostructure Databank - Neutral Graphene Oxide Data Set
C          2.40742         2.53821        -3.26865
C          2.06558         3.80322        -2.77065
C          3.34476         1.71979        -2.62955
C          2.58912         4.24033        -1.53863
C          1.30635         6.37461        -1.33644
C          1.21580         7.72709        -1.06644
C          2.49088         5.63991        -1.07446
C          2.36386         8.48748        -0.70912
C          1.07292        10.61518        -0.25531
C          1.05100        11.98428        -0.04726
C          2.27709         9.90189        -0.49462
C          2.25055        12.77201         0.05545
C          1.00223        14.99127         0.24844
C          0.98422        16.34083         0.11879
C          2.23184        14.22204         0.15489
C          2.19246        17.10816        -0.35745
C          2.26712        18.54359         0.09845
C          3.90579         2.11755        -1.39770
C          3.37967         3.30394        -0.84187
C          5.04852         1.44107        -0.78424
C          4.90352         4.28568         0.13502
C          3.61327         6.33902        -0.54308
C          3.61351         7.78128        -0.53808
C          4.84185         5.66966        -0.16077
C          4.83576         8.48699        -0.33507
C          3.50314        10.69764        -0.54679
C          3.47501        12.09254        -0.10235
C          4.86381         9.94264        -0.50251
C          4.73236        12.74262         0.23620
C          3.43905        14.95663         0.10108
C          3.47241        16.36714        -0.06470
C          4.71092        14.27522         0.35880
C          4.69459        17.06693        -0.06793
C          3.44803        19.19010         0.21412
C          4.72560        18.51659         0.02768
C          6.06716         2.07321        -0.11313
C          6.08923         3.52415         0.06723
C          7.28824         1.29496         0.36972
C          7.30538         4.24627         0.07338
C          6.06426         6.37917        -0.03309
C          6.06952         7.82069        -0.08254
C          7.26894         5.65199         0.14020
C          7.29591         8.53912         0.06683
C          6.07543        10.69315        -0.12711
C          6.03446        12.07430         0.04740
C          7.31160         9.97634         0.01587
C          7.23740        12.84102         0.20629
C          5.96988        14.98394         0.11662
C          5.93449        16.35985        -0.08629
C          7.20192        14.25092         0.17680
C          7.19039        17.10227        -0.45264
C          5.93046        19.20445         0.10531
C          7.20511        18.56353        -0.04150
C          8.60900         1.99851         0.02924
C          8.58017         3.50543        -0.10748
C          9.90280         1.35860         0.36918
C          9.86714         4.25983         0.03213
C          8.48738         6.39373         0.50565
C          8.51754         7.85753         0.36958
C          9.79505         5.66119         0.54369
C          9.73080         8.53939         0.53703
C          8.51330        10.68606         0.16311
C          8.51091        12.13480         0.22899
C          9.75041         9.97821         0.39042
C          9.70272        12.82688         0.37825
C          8.43017        15.01766         0.17710
C          8.42493        16.37634        -0.00403
C          9.69319        14.29507         0.46444
C          9.67667        17.13245        -0.24625
C          8.41109        19.24459         0.07376
C          9.69966        18.60785        -0.06008
C         11.11626         2.03438         0.40106
C         11.15279         3.50559         0.21494
C         12.36614         1.40514         0.70847
C         12.35589         4.23864         0.67074
C         11.03509         6.44476         0.62569
C         10.98449         7.82494         0.75321
C         12.25381         5.69058         0.95084
C         12.20320         8.56457         1.04226
C         10.93749        10.68485         0.53017
C         11.01654        12.12466         0.13365
C         12.09528        10.03410         1.13488
C         12.27590        12.88520         0.53857
C         10.99544        15.00502         0.27818
C         10.96320        16.39896        -0.25911
C         12.26309        14.24184         0.28606
C         12.24169        17.17393        -0.29363
C         10.91591        19.27241         0.05972
C         12.21807        18.63380        -0.02252
C         13.57576         2.12476         0.85023
C         13.54404         3.58715         0.82438
C         14.80769         1.47614         1.10593
C         14.85709         4.34297         0.75156
C         13.50289         6.46927         1.25006
C         13.43456         7.93859         1.17884
C         14.80925         5.79709         1.16597
C         14.64575         8.67319         1.50866
C         13.34298        10.83797         1.42342
C         13.50453        12.21437         0.89656
C         14.50890        10.01250         1.78034
C         14.77674        12.86017         0.62441
C         13.51935        15.02763         0.48788
C         13.51207        16.41732        -0.12370
C         14.74190        14.20754         0.17686
C         14.73508        17.20510         0.09568
C         13.42385        19.28536         0.20069
C         14.71348        18.59918         0.19200
C         16.04149         2.16501         1.34202
C         16.00307         3.61467         1.40477
C         17.24564         1.41544         1.32730
C         17.07165         4.40543         1.79736
C         15.96615         6.50611         1.41828
C         15.93845         7.95500         1.70324
C         17.22361         5.79536         1.50866
C         17.34177         8.66836         1.51481
C         16.35193        10.99707         1.33909
C         16.05891        12.17012         0.58306
C         17.33787        10.06176         1.03365
C         17.19345        12.72673        -0.16466
C         15.90536        14.92478        -0.30702
C         15.95380        16.48297        -0.22562
C         17.21763        14.22409        -0.42503
C         17.24555        17.11984        -0.03052
C         15.98850        19.25451         0.23713
C         17.21596        18.55419         0.17188
C         18.56371         1.94745         1.10792
C         18.83683         3.34399         1.40694
C         19.60861         1.22053         0.55501
C         19.70195         4.18138         0.73529
C         18.50847         6.40921         1.29307
C         18.53307         7.83199         1.17707
C         19.70539         5.64398         0.90763
C         19.74223         8.50526         0.84071
C         18.50715        10.56332         0.29085
C         18.50614        12.00139        -0.13449
C         19.78551         9.90817         0.58339
C         19.76396        12.76726        -0.04098
C         18.47297        14.96210        -0.25979
C         18.43798        16.36433        -0.05415
C         19.72126        14.22366        -0.14582
C         19.70923        17.08204         0.33881
C         18.46797        19.25027         0.12228
C         19.68729        18.56727         0.04118
C         20.74420         1.94524        -0.03763
C         20.70658         3.46296        -0.10654
C         22.04097         1.27875        -0.18225
C         21.98793         4.18125        -0.43481
C         20.87184         6.34850         0.54640
C         20.94934         7.77137         0.65946
C         22.04383         5.68580        -0.08832
C         22.18302         8.48481         0.54075
C         20.97767        10.61751         0.38982
C         20.94307        12.06279         0.20261
C         22.22110         9.89242         0.45168
C         22.22160        12.79133         0.28154
C         20.91843        14.94577        -0.16806
C         20.94521        16.38427        -0.16757
C         22.21335        14.26521         0.00231
C         22.12111        17.07639        -0.36017
C         20.91348        19.23099        -0.15914
C         22.14402        18.53412        -0.30450
C         23.23673         1.99398        -0.28998
C         23.25188         3.43300        -0.43044
C         24.48741         1.30030        -0.33570
C         24.48589         4.12138        -0.41489
C         23.33580         6.31935        -0.05101
C         23.42894         7.68713         0.45659
C         24.50209         5.61064        -0.72473
C         24.72045         8.43752         0.27784
C         23.48589        10.61178         0.30407
C         23.49845        12.05205         0.16177
C         24.67396         9.90306         0.19565
C         24.67933        12.77734         0.00787
C         23.41345        14.82848        -0.75133
C         23.37863        16.40381        -0.88159
C         24.71054        14.19552        -0.26762
C         24.59975        17.09955        -0.30656
C         23.36068        19.23734        -0.43729
C         24.62293        18.58517        -0.45045
C         25.69950         1.98523        -0.30746
C         25.68749         3.42097        -0.23414
C         26.95922         1.29126        -0.46027
C         26.92739         4.10948         0.18345
C         25.80331         6.30241        -0.40373
C         25.78325         7.79150        -0.59999
C         26.95855         5.61262         0.15116
C         27.14484         8.47970        -0.54138
C         25.97410        10.58367         0.20550
C         25.97220        12.11010         0.20620
C         27.20475         9.91761        -0.22985
C         27.22898        12.78185        -0.12576
C         25.91787        14.87602        -0.33270
C         25.88526        16.35710        -0.23214
C         27.20123        14.19766        -0.26501
C         27.13660        17.12172        -0.48600
C         25.83542        19.27009        -0.41299
C         27.11249        18.60814        -0.34095
C         28.17296         1.93255        -0.37633
C         28.23002         3.31821         0.14864
C         29.40578         1.29192        -0.76839
C         29.55929         4.02912         0.14441
C         28.31706         6.32113         0.18916
C         28.41624         7.71211        -0.36161
C         29.61171         5.55501         0.22742
C         29.68158         8.45842        -0.18112
C         28.41617        10.60317        -0.20039
C         28.43599        12.05799        -0.14738
C         29.67507         9.87524        -0.24644
C         29.67738        12.76528        -0.25492
C         28.42326        14.88981        -0.31216
C         28.41855        16.36077        -0.47920
C         29.67112        14.19982        -0.30199
C         29.66821        17.09021        -0.13292
C         28.30455        19.29286        -0.30385
C         29.60696        18.60953        -0.11709
C         30.59484         1.96306        -0.82692
C         30.71923         3.35118        -0.46160
C         31.88099         4.07075        -0.68155
C         30.85131         6.25388        -0.19115
C         30.88778         7.71984        -0.17070
C         31.95003         5.48417        -0.52390
C         32.10022         8.44471        -0.16866
C         30.90869        10.58443        -0.24827
C         30.91181        12.04520        -0.30780
C         32.10450         9.83382        -0.19929
C         32.10228        12.78050        -0.42518
C         30.91502        14.92127        -0.39737
C         30.94566        16.38574        -0.36320
C         32.10113        14.17712        -0.46892
C         32.08691        17.15169        -0.45823
C         30.87219        19.29330        -0.40685
C         32.03404        18.58633        -0.50681
O         10.24911        16.60967        -1.52861
O          8.56448         2.63785        -1.28907
O         27.90254         7.97643        -1.71646
O         23.33929        14.26678        -2.04629
O         26.10958        11.35365         1.45518
O         15.51642        10.71561         2.43204
O         21.76020         5.15852        -1.49201
O         29.82224         4.71868         1.39905
O         22.35531        13.80357         1.37806
O         12.31217        10.66089         2.47723
O         13.00511        16.68782        -1.46271
O         18.43208        10.91474        -1.13769
O          4.29649        10.43612        -1.76199
O         10.74881         4.06486        -1.10584
O         15.72726        15.75309        -1.49185
O         10.39093        14.89339         1.63510
O         27.48875         3.50473         1.38805
O         29.61329        17.80789         1.13743
O         25.13317        16.72440         1.00096
O         24.42808         7.86354         1.57084
O          9.01755         5.83578         1.78179
O         17.03695        13.25615        -1.51683
O         20.24287         2.70505        -1.26096
O         27.51125         6.25424         1.38728
O         18.13190         3.83245         2.51235
O          4.68891        13.42808         1.54508
O         16.75555         8.37983         2.81590
O         12.67302         5.94336         2.36071
O         27.79097        16.75560        -1.75845
O          3.71984         3.61963         0.48835
O          2.06734        17.16797        -1.82643
H          2.06242        16.24468        -2.15705
O          7.23874        17.08782        -1.92276
H          8.17736        17.19760        -2.19415
O         23.41680        16.71230        -2.28944
H         23.35487        15.81377        -2.73619
O         13.60445        15.32880         1.93665
H         13.38408        14.50830         2.42897
O         25.27775         8.08911        -1.93088
H         25.92834         7.73601        -2.57721
O         19.75871        16.97942         1.80648
H         20.64913        17.27096         2.09729
O         24.30991         5.67993        -2.17869
H         23.35184         5.48826        -2.34801
O         11.14923        12.10104        -1.34897
H         10.36984        11.62798        -1.71299
O          7.20480         1.11892         1.79396
H          6.93879         1.96876         2.20154
O         15.16524         4.37522        -0.69497
H         15.24548         3.44541        -0.99894
H          1.98838         2.21646        -4.23206
H          1.42335         4.46799        -3.36526
H          3.67734         0.78890        -3.10978
H          0.42525         5.84133        -1.72041
H          0.25804         8.24161        -1.22521
H          0.11871        10.06888        -0.24767
H          0.07746        12.47520         0.08805
H          0.06851        14.46313         0.49209
H          0.03486        16.88727         0.22477
H          1.32225        19.08822         0.24674
H          5.17208         0.36993        -1.01539
H          3.46703        20.25866         0.47895
H          7.28708         0.27174        -0.08427
H          5.91069        20.28954         0.29540
H          9.88620         0.28584         0.61680
H          8.39068        20.32522         0.28942
H         12.38606         0.31104         0.82831
H         10.89895        20.35883         0.24298
H         14.82704         0.37529         1.09531
H         13.42024        20.37173         0.38070
H         17.13655         0.32827         1.17931
H         16.01927        20.35260         0.30605
H         19.53333         0.13255         0.41085
H         18.45983        20.35068         0.07363
H         22.07744         0.18302        -0.09506
H         20.91594        20.32931        -0.24661
H         24.48269         0.20056        -0.34075
H         23.33263        20.33861        -0.45410
H         26.92842         0.23412        -0.76514
H         25.82777        20.37185        -0.42315
H         29.35873         0.23736        -1.07684
H         28.30175        20.39419        -0.32681
H         31.49605         1.44481        -1.18603
H         32.76259         3.54873        -1.08126
H         32.89762         5.97650        -0.78356
H         33.05936         7.90989        -0.14076
H         33.07463        10.34858        -0.18723
H         33.06898        12.26278        -0.48527
H         33.06666        14.69464        -0.55154
H         33.07012        16.67769        -0.58644
H         30.86345        20.38034        -0.57444
H         32.97492        19.12311        -0.69595
