         648
 CSIRO Nanostructure Databank - Neutral Graphene Oxide Data Set
C          5.92889        31.75305        -1.02739
C          5.90553        33.11200        -0.96881
C          8.32088        27.46846        -0.38622
C          8.31458        28.85342        -0.38271
C          7.12669        29.61670        -0.73017
C          8.18429        31.70302         0.12862
C          7.07834        30.97998        -0.60820
C          8.24894        33.18343        -0.14574
C          7.05338        33.89188        -0.52177
C          8.16476        36.04964         0.09651
C          7.03287        35.27256        -0.51659
C          8.28266        37.47116        -0.36582
C         10.67889        23.06850        -0.10592
C         10.64436        24.44961         0.56264
C          9.50972        25.31352         0.01956
C         10.73963        27.44249         0.03697
C          9.51629        26.70202        -0.08654
C         10.77238        28.85472        -0.00942
C          9.53029        29.59884        -0.10725
C         10.71136        31.74753         0.20133
C          9.51551        30.99367         0.02246
C         10.70486        33.15176         0.16509
C          9.45864        33.88614         0.02664
C         10.68929        36.03071         0.15176
C          9.47452        35.30664         0.01653
C         10.68031        37.44492         0.14071
C          9.48642        38.16469        -0.25329
C         10.80231        40.27282        -0.63937
C          9.58905        39.54540        -0.61780
C         10.84942        41.60601        -1.03269
C         13.26567        18.74973         0.03869
C         13.18872        20.16826         0.08408
C         11.88977        20.77373        -0.08669
C         13.41212        23.19953         0.56905
C         11.55694        22.09720         0.33519
C         13.30657        24.54727         0.34518
C         11.99988        25.23316         0.58025
C         13.22678        27.40305        -0.22316
C         11.99299        26.70452         0.31254
C         13.23039        28.83508         0.29532
C         11.98258        29.55849         0.20807
C         13.17691        31.68837        -0.26598
C         12.01212        31.04068         0.50624
C         13.19294        33.20422        -0.13779
C         11.93170        33.90694         0.15803
C         13.18869        36.03469         0.41881
C         11.94118        35.30358         0.21352
C         13.16244        37.43021         0.59631
C         11.92236        38.17627         0.40622
C         13.38549        40.18189        -0.41428
C         12.03127        39.65335        -0.06577
C         13.43225        41.57260        -1.02839
C         12.11795        42.33262        -1.20268
C         13.26725        44.55027        -0.88596
C         12.11763        43.80554        -1.11916
C         13.31607        45.98747        -0.88444
C         15.76350        14.46979         0.08034
C         15.71919        15.87824        -0.06662
C         14.53425        16.61520        -0.02703
C         15.69962        18.81017        -0.13281
C         14.49007        18.05689        -0.01405
C         15.68647        20.22394        -0.12078
C         14.44303        20.89544         0.08453
C         15.77213        23.13762        -0.24686
C         14.44447        22.35925        -0.02699
C         15.76959        24.56532         0.01794
C         14.52408        25.28984         0.05162
C         15.78844        27.39169        -0.37145
C         14.52008        26.67959         0.00925
C         15.81527        28.88866        -0.12674
C         14.57356        29.62019         0.19197
C         15.73964        31.79068        -0.27129
C         14.51632        31.04893         0.06826
C         15.77859        33.21531         0.18721
C         14.50232        33.95980         0.08300
C         15.60069        35.97827         1.13749
C         14.40239        35.32259         0.58587
C         15.67800        37.43870         0.98992
C         14.39436        38.24100         0.91294
C         15.84523        39.78444        -0.38356
C         14.49157        39.42375        -0.06462
C         15.93857        41.92250        -0.73720
C         14.60175        42.47482        -0.79215
C         15.77920        44.55218        -0.37439
C         14.50661        43.83365        -0.66376
C         15.78484        46.03456        -0.38986
C         14.49670        46.70940        -0.67357
C         15.74957        48.84785        -0.48876
C         14.58057        48.10576        -0.79956
C         15.78220        50.14957        -1.05520
C         18.34190        10.25810         0.67600
C         18.30671        11.66328         0.44344
C         17.05417        12.38516         0.41026
C         18.21907        14.33638        -0.56935
C         16.97159        13.73019         0.05031
C         18.20632        15.87447        -0.64909
C         17.03732        16.62165        -0.01328
C         18.22589        18.84028        -0.61102
C         16.93412        18.07371        -0.46445
C         18.21281        20.28747        -0.32964
C         16.96609        20.96063        -0.20338
C         18.23137        23.07852         0.05240
C         17.01030        22.37331        -0.13214
C         18.24684        24.51715         0.17000
C         17.01524        25.23856         0.12444
C         18.23487        27.33565         0.22819
C         17.02408        26.65882         0.08650
C         18.24484        28.79257         0.01052
C         16.99556        29.55720        -0.26775
C         18.26437        31.85322        -0.07689
C         17.03690        31.05419        -0.39661
C         18.19187        33.01945         0.86676
C         16.90858        33.80383         0.66409
C         18.18129        35.95310         1.11459
C         16.90464        35.20302         1.16154
C         18.16910        37.34108         1.02326
C         16.90765        38.06132         0.89995
C         18.26813        40.13821         0.07357
C         16.96927        39.37828         0.29322
C         18.15371        41.64129         0.51584
C         16.97159        42.42130        -0.01234
C         18.11018        44.60805         0.58238
C         16.80835        43.83591         0.48759
C         18.02780        46.02049         0.71468
C         16.88649        46.77730         0.28181
C         18.04833        48.90612         0.66520
C         16.87071        48.19773         0.23657
C         18.13894        50.29464         0.71005
C         16.62829        51.17775        -0.58778
C         18.31180        52.99354        -0.62330
C         17.20335        52.26889        -1.21133
C         18.45049        54.31737        -1.04867
C         20.77628         6.03739         1.80596
C         20.73560         7.50353         1.42183
C         19.57982         8.14748         1.09968
C         20.78684        10.30030         0.81251
C         19.54781         9.57795         0.85782
C         20.77306        11.67922         0.45176
C         19.52976        12.35473         0.29482
C         20.72848        14.43711        -0.47535
C         19.48643        13.86095         0.17629
C         20.79127        15.90635        -0.58801
C         19.50328        16.63064        -0.71625
C         20.68783        18.78046        -0.44850
C         19.51572        18.10528        -0.50329
C         20.72260        20.28265        -0.66319
C         19.44329        20.98034        -0.22820
C         20.71222        23.08709         0.32410
C         19.45318        22.35794         0.04200
C         20.73570        24.55217         0.29087
C         19.48668        25.23836         0.27345
C         20.74198        27.41786         0.64815
C         19.46792        26.65617         0.34536
C         20.84978        28.73442        -0.10671
C         19.55676        29.33390        -0.39466
C         20.75766        31.87324         0.00655
C         19.48261        31.47100        -0.53394
C         20.72762        33.18962         0.55215
C         19.46479        33.85283         0.79744
C         20.65582        35.97463         1.24451
C         19.43155        35.22783         1.06018
C         20.63441        37.36404         1.23365
C         19.41094        38.08918         0.99255
C         20.63805        40.25523         0.91318
C         19.43355        39.47590         0.77685
C         20.61193        41.70642         0.84910
C         19.45516        42.44299         0.19357
C         20.54350        44.57680         0.94465
C         19.34404        43.89784         0.67147
C         20.52304        45.99823         1.31546
C         19.20019        46.72346         1.27949
C         20.54422        48.90265         1.23256
C         19.18457        48.23636         1.41173
C         20.58721        50.34441         1.05516
C         19.35910        51.05175         0.67569
C         20.55148        53.20255         0.47853
C         19.34797        52.38379         0.21327
C         20.71690        54.53813        -0.12132
C         19.57325        55.15407        -0.76088
C         20.78479        57.30948        -0.98034
C         19.60658        56.47720        -1.18081
C         20.92169        58.63170        -1.61274
C         23.15293         3.31584         0.54553
C         21.99323         3.97589         0.98737
C         23.24426         6.03977         1.19366
C         22.02923         5.33862         1.30999
C         23.32358         7.47072         1.50855
C         21.98631         8.26380         1.57271
C         23.24152        10.37800         1.07825
C         22.02704         9.67692         1.14668
C         23.24113        11.74591         0.66314
C         22.02368        12.35693         0.30971
C         23.26717        14.48012        -0.25334
C         22.03074        13.69012        -0.31495
C         23.23369        15.86319        -0.32196
C         21.98896        16.57833        -0.50867
C         23.17528        18.78690        -0.09204
C         22.00385        18.07788        -0.74222
C         23.19049        20.27140        -0.18321
C         22.01211        20.93751        -0.17761
C         23.27729        23.14371         0.09020
C         22.02078        22.36412         0.22544
C         23.26608        24.54712         0.21120
C         21.99125        25.26050         0.33032
C         23.25994        27.42712         0.71302
C         22.00313        26.64046         0.46251
C         23.22006        28.88952         0.26398
C         21.96951        29.56942         0.01913
C         23.16915        31.75715         0.23345
C         21.93948        31.05893         0.00873
C         23.15280        33.17321         0.44567
C         21.95618        33.85425         0.74112
C         23.22584        35.95850         1.47113
C         21.93050        35.21838         1.31922
C         23.18033        37.45029         1.64448
C         21.86884        38.15558         1.43297
C         23.12230        40.17651         0.63415
C         21.86837        39.58140         1.03075
C         23.25502        41.57271         0.05374
C         21.61915        42.45910         1.44691
C         23.02338        44.56928         1.14550
C         21.77946        43.88303         1.13717
C         23.03199        46.03008         1.27076
C         21.79122        46.75454         1.34792
C         23.00141        48.88978         1.76613
C         21.73930        48.17373         1.42517
C         23.01120        50.41976         1.76958
C         21.79505        51.02270         1.10868
C         23.13566        53.13128         0.68183
C         21.83334        52.48371         0.93917
C         23.15350        54.46754         0.27712
C         21.95271        55.16767        -0.10438
C         23.37299        57.07663        -1.09347
C         22.05008        56.59521        -0.51758
C         23.45167        58.56786        -1.56878
C         22.11610        59.31569        -1.54228
C         23.39661        61.41266        -1.53742
C         22.20255        60.72445        -1.72675
C         24.34822         4.00190         0.40224
C         25.63072         6.11756         0.56738
C         24.42223         5.38950         0.71058
C         25.69812         7.52353         0.78783
C         24.52742         8.21356         1.18773
C         25.78470        10.36670         0.95757
C         24.54340         9.68981         1.47936
C         25.76601        11.82320         0.88267
C         24.48838        12.48832         0.51008
C         25.76861        14.45304        -0.45327
C         24.50127        13.78299         0.03972
C         25.76319        15.94029        -0.30305
C         24.48878        16.55274         0.19278
C         25.67737        18.78548        -0.41865
C         24.45971        18.07309         0.10409
C         25.65138        20.29005        -0.57876
C         24.49818        20.95994         0.14806
C         25.72659        23.12225        -0.12075
C         24.48552        22.44736        -0.07092
C         25.72811        24.52866         0.05844
C         24.51049        25.25124         0.21492
C         25.68128        27.42933         0.16224
C         24.51869        26.69687         0.31054
C         25.67640        28.87260         0.15646
C         24.42450        29.59160         0.21961
C         25.66402        31.69485         0.32569
C         24.43098        31.03726         0.22320
C         25.70048        33.17283         0.39860
C         24.41322        33.94193         0.38584
C         25.70247        36.08354         0.98027
C         24.37276        35.45082         0.61045
C         25.70152        37.42617         1.16476
C         24.47971        38.25030         1.51843
C         25.56958        40.22712         0.22562
C         24.32110        39.50962         0.69673
C         25.61272        41.66471         0.80541
C         24.29330        42.39978         0.80400
C         25.52299        44.50990         1.12198
C         24.28163        43.87277         0.98308
C         25.51828        45.93452         1.50563
C         24.26221        46.69096         1.40848
C         25.59078        48.88723         1.61790
C         24.30771        48.12867         1.74533
C         25.54469        50.28764         1.47239
C         24.32230        51.02775         1.28863
C         25.64399        53.01582         0.58529
C         24.34517        52.36566         0.89023
C         25.69430        54.50407         0.32363
C         24.41288        55.25300         0.34596
C         25.82909        57.31542        -0.29157
C         24.49889        56.65733        -0.17546
C         25.80544        58.69702        -0.60608
C         24.61647        59.35372        -0.96672
C         24.55883        60.75299        -1.10213
C         26.92798         8.23534         0.65645
C         28.23216        10.34650         0.52528
C         26.98290         9.65383         0.74574
C         28.32148        11.73397         0.44504
C         27.08383        12.53169         0.61317
C         28.25894        14.55726        -0.15663
C         27.06375        13.87337         0.02993
C         28.24518        15.96765        -0.43515
C         26.96469        16.66000        -0.38102
C         28.14733        18.77679        -0.95086
C         26.95070        18.07430        -0.46769
C         28.10472        20.27537        -1.21505
C         26.92736        21.03885        -0.70399
C         28.31279        23.05382        -0.19776
C         26.96426        22.37328        -0.36882
C         28.25931        24.57182        -0.32721
C         27.02092        25.23940         0.13716
C         28.15764        27.49245        -0.37982
C         26.99060        26.74945         0.12973
C         28.09163        28.87614        -0.40132
C         26.87931        29.56994        -0.03085
C         28.12641        31.69715        -0.02449
C         26.89977        31.00118         0.09651
C         28.21968        33.05049         0.56247
C         26.95161        33.79696         0.92545
C         28.26456        35.97562         1.18790
C         26.91470        35.26718         1.40215
C         28.27699        37.48464         1.10123
C         26.94813        38.22987         1.17820
C         28.03627        40.30572         0.18460
C         26.84920        39.57285         0.63635
C         28.08676        41.78095         0.36956
C         26.86161        42.44767         0.75813
C         28.04312        44.59393         0.97890
C         26.80130        43.83519         0.98382
C         28.07227        45.96679         1.14411
C         26.84468        46.69311         1.55911
C         28.07746        48.83182         1.44974
C         26.83255        48.17614         1.54023
C         28.14752        50.27998         1.64466
C         26.80153        51.05498         1.58281
C         28.10431        53.11645         1.01885
C         26.87988        52.41203         1.06852
C         28.12427        54.52479         0.71645
C         26.97219        55.24262         0.44096
C         26.97761        56.63551         0.11325
C         29.52495        12.45592         0.20919
C         30.71869        14.61728        -0.04437
C         29.52946        13.85723         0.02329
C         30.70617        16.01480        -0.26585
C         29.45091        16.70556        -0.49992
C         30.64973        18.86616        -0.76671
C         29.45284        18.10634        -0.77100
C         30.68938        20.25853        -1.11230
C         29.40934        21.01208        -1.57934
C         30.31412        23.29675        -1.58731
C         29.36274        22.46503        -1.10591
C         30.57907        24.65348        -1.12671
C         29.37359        25.32224        -0.62575
C         30.56411        27.45006        -0.96030
C         29.38066        26.78252        -0.66051
C         30.51860        28.87986        -1.30413
C         29.22561        29.65006        -0.93018
C         30.52576        31.77169        -0.56203
C         29.31091        31.07606        -0.52939
C         30.56563        33.16474        -0.17167
C         29.46508        33.80090         0.36499
C         30.65733        36.03134         0.27334
C         29.48288        35.24245         0.71162
C         30.63543        37.47959         0.30280
C         29.44274        38.14884         0.48789
C         30.56392        40.32365        -0.22053
C         29.31598        39.54662         0.02643
C         30.54775        41.84185        -0.13781
C         29.28315        42.46659         0.32023
C         30.50146        44.63323         0.27647
C         29.36939        43.84158         0.93964
C         30.54392        46.05538         0.78493
C         29.32028        46.71607         1.03415
C         30.54087        48.85930         1.13100
C         29.30355        48.12995         1.21287
C         30.55762        50.27497         1.14088
C         29.37622        51.01731         1.30343
C         29.33281        52.41509         1.18100
C         31.88470        16.78783        -0.19624
C         33.06739        18.93200        -0.19299
C         31.88166        18.18300        -0.39893
C         33.11153        20.29785        -0.49185
C         31.94616        20.90638        -1.09787
C         33.17506        23.07508        -1.19275
C         32.17010        22.23169        -1.60666
C         33.12348        24.54735        -1.62274
C         31.81129        25.25444        -1.16248
C         33.03240        27.37694        -1.59404
C         31.89857        26.73160        -0.77345
C         33.10331        28.91154        -1.53432
C         31.79217        29.67639        -1.46210
C         33.09727        31.77016        -0.59339
C         31.78370        31.13570        -1.06556
C         33.07587        33.27884        -0.83564
C         31.77955        33.95647        -0.49958
C         33.07062        36.06943         0.06308
C         31.78528        35.38563        -0.14756
C         33.09881        37.53462         0.03516
C         31.86735        38.21419         0.02653
C         33.03351        40.35989        -0.27169
C         31.84041        39.62609        -0.08797
C         33.08169        41.80305        -0.07338
C         31.85693        42.52184         0.06752
C         33.05360        44.57289         0.55758
C         31.83178        43.90031         0.35176
C         33.11214        46.05952         0.81929
C         31.76915        46.76039         0.83927
C         31.75770        48.14137         1.00525
C         34.27402        21.10204        -0.25775
C         35.49070        23.27088        -0.37959
C         34.30354        22.46784        -0.53929
C         35.53259        24.59512        -0.73795
C         34.35484        25.32442        -1.16882
C         35.57125        27.47326        -0.96123
C         34.35607        26.70334        -1.23643
C         35.59341        28.89095        -0.89896
C         34.39214        29.66047        -1.32722
C         35.56875        31.80442        -0.54607
C         34.37799        31.20573        -1.26901
C         35.57856        33.19565        -0.33539
C         34.42826        34.05179        -0.83226
C         35.60159        36.14154         0.16793
C         34.34397        35.32685         0.02517
C         35.60764        37.57711        -0.18010
C         34.31908        38.22244        -0.25637
C         35.99500        40.60155        -0.14677
C         34.18164        39.59472        -0.57314
C         35.60739        41.81133         0.43764
C         34.32326        42.46732         0.24152
C         34.25015        43.84775         0.55955
C         36.87304        25.28888        -0.69452
C         38.00320        27.50556        -0.75782
C         36.80300        26.79095        -0.78215
C         38.03141        28.90723        -0.62918
C         36.77669        29.58741        -0.54786
C         37.69419        31.65099         0.54430
C         36.68314        31.00633        -0.19133
C         37.71600        33.03543         0.70759
C         36.71068        33.85402         0.20322
C         38.13347        36.05264        -0.04153
C         36.86914        35.34285         0.30052
C         38.08317        37.43095        -0.10756
C         36.87243        38.24590        -0.08133
C         37.00368        39.64752         0.16924
C         39.30216        29.62894        -0.81316
C         40.60609        31.76223        -0.54449
C         39.61544        30.76976        -0.12906
C         40.61418        33.13057        -0.44994
C         39.63192        34.04612         0.12711
C         39.34515        35.29581        -0.36843
O         22.88856        41.89008        -1.06957
O         23.69320        18.52835         1.28216
O         38.83450        30.99084         1.02842
O         34.72905        34.53970        -2.10318
O         17.43004        18.43979        -1.78022
O         27.85372        38.11735         2.34867
O         16.04357        40.70409        -1.42405
O         26.50603        12.49913         1.97302
O         12.88103        41.73238        -2.36369
O         30.47430        41.15070        -1.42205
O         31.72022        30.73047        -2.46503
O         33.62398        35.31736         1.28274
O         27.23804        25.99666         1.38367
O         35.21045        40.22140        -1.26574
O         21.34364        57.43657         0.41535
O         14.87991        22.79263        -1.35845
O         12.45105        22.56186         1.34487
O         32.20384        33.69236        -1.90047
O         27.62899        33.00574         1.93722
O         22.72766        35.21717         2.59257
O         14.00369        29.07678         1.50718
O         19.68084        46.14478         2.54789
O         16.96998        51.03520         0.77275
O         36.22364        35.89410         1.48921
O         23.58375        48.38981         3.01937
O         18.69751        16.30563        -1.93420
O         21.27867        13.70211        -1.59502
O         18.99055        29.61384         0.99594
O         27.49697        50.79550         2.83968
O         12.05776        26.19583         1.69428
O         33.93840        29.28292        -2.67914
O         13.88780        33.81608        -1.26986
O         16.12234        35.39377         2.39650
O         25.31131        19.46577        -1.70452
O         38.89367        33.59006         1.23744
O         29.53590        29.27056        -2.30463
O         22.42576        37.89356         2.80214
O         25.70684        53.55872        -0.80688
O         21.39689        22.54337         1.54987
O         28.40696        39.70309        -1.12970
O         16.34082        31.53372        -1.61150
O         27.81385        19.33709        -2.29726
O         11.79902        39.33544         1.33874
O         24.23018        56.39858         1.24276
O         31.23546        22.77271        -2.50522
O         22.70329         7.91067         2.79540
O         24.82459        41.75724         2.02005
O         25.19439        33.73857        -0.86681
O         20.97015        53.18940         1.88391
O         23.80288        58.64662        -2.91743
O         16.31112        45.24372        -1.54363
O         26.23769        46.15902         2.78534
O         29.23890        35.49673         2.16818
O         22.18565        18.27824        -2.14305
O         19.52837        30.34765        -1.36212
O         18.01248        41.59805         1.95232
H         17.39887        42.31764         2.23809
O         19.60364         5.35748         1.36693
H         19.58873         5.36015         0.38825
O         34.42355        31.70987        -2.60274
H         33.65046        31.34557        -3.09224
O         14.25350        38.84097         2.23432
H         13.33488        39.20513         2.29202
O         24.82543        38.73490         2.84490
H         23.98523        38.76370         3.36405
O         20.66326        27.79464         2.07560
H         19.97903        28.51160         2.13253
O         32.25918        26.85640         0.62705
H         31.59036        26.37959         1.16258
O         32.67610        27.08629        -2.95722
H         33.28033        27.60353        -3.53515
O         22.90387        50.84978         3.15527
H         23.28784        50.12727         3.70713
O          7.83706        36.11316         1.55480
H          7.80296        35.18688         1.88024
O         23.34551        27.51850         2.18212
H         22.43197        27.72800         2.50686
O         18.26467        13.81071        -1.90475
H         18.64710        14.51735        -2.48032
O         17.38833        16.67502         1.41022
H         16.60706        17.00233         1.90473
O         33.21607        31.50987         0.82346
H         32.59814        32.08952         1.31705
O         23.58737        56.36198        -2.39333
O         29.76431        43.64453         2.32942
H         28.98144        43.33969         2.83514
O         19.46816        14.41452         1.51713
H         18.59942        14.21117         1.92469
O         12.27271        31.21446         1.92509
H         12.94085        30.52974         2.18061
O         19.62960        42.53610        -1.23123
H         19.64531        41.61353        -1.58584
O         24.80131        20.80874         1.56626
H         23.99074        21.01936         2.07686
O         23.51230        54.93084        -2.19978
H         24.45418        54.62926        -2.28074
O         25.75298        14.16096        -1.91187
H         26.33822        14.81131        -2.35665
O         18.11909        32.49281         2.22848
H         18.00077        33.25152         2.83936
O         24.02171        36.02721        -0.68760
H         24.52138        35.52285        -1.37126
O         30.14356        44.72318        -1.13197
H         30.90212        45.09942        -1.62402
O         16.27888        43.77661         1.85927
H         16.50655        44.61465         2.31687
O         20.76102        20.45606        -2.10776
H         21.32017        19.68919        -2.45410
O         24.53452        16.20507         1.61967
H         24.08024        16.93855         2.10121
O         18.61595        40.06903        -1.33851
H         17.79886        40.29809        -1.84653
O         18.86283        48.53293         2.81119
H         19.31759        47.84373         3.35181
O         28.71117        22.78798         1.18688
H         28.10082        23.28326         1.77472
O         33.99257        46.68898        -0.12772
H         33.67607        46.48451        -1.03097
O         25.56838        40.33238        -1.22047
H         24.70888        40.70593        -1.51549
O         26.71827        35.19659         2.83171
H         27.56745        34.87977         3.21791
O         33.16913        24.55950        -3.06770
H         32.38184        24.05989        -3.38681
O         29.47182        21.05844        -3.02087
H         29.04113        20.23799        -3.35695
O          7.81470        31.61817         1.55974
H          7.83906        30.66937         1.80987
O         22.31243        41.95284         2.49733
H         22.92634        42.61512         2.87439
O         15.81549        27.31004        -1.86893
H         15.90398        26.35959        -2.10380
O         13.03554        27.47362        -1.66671
H         13.92102        27.63600        -2.07751
O         10.28912        24.23269         1.95407
H         10.65933        24.99320         2.45956
O         37.69680        24.77600        -1.76281
H         37.23259        24.94685        -2.60839
O         24.63786         9.82496         2.94589
H         23.93835         9.23613         3.32372
O         12.97913        31.38550        -1.66679
H         13.57856        31.98078        -2.17382
H          5.05623        31.20694        -1.41725
H          5.00972        33.66093        -1.29441
H          7.38729        26.92440        -0.59547
H          6.26798        29.07424        -1.15608
H          6.11398        35.80798        -0.80053
H          7.37656        38.00113        -0.69517
H          9.95685        22.84859        -0.90556
H          8.54074        24.79974        -0.08896
H          8.67914        40.05279        -0.97203
H          9.91408        42.12169        -1.29925
H         12.33011        18.17081         0.03561
H         11.10892        20.14577        -0.54340
H         11.14627        44.31709        -1.20003
H         12.39157        46.54345        -1.10137
H         14.82480        13.93555         0.29995
H         13.57556        16.07466         0.00453
H         13.71094        48.65531        -1.19055
H         15.10636        50.35232        -1.89989
H         17.39493         9.70136         0.73774
H         16.14182        11.85087         0.71918
H         16.83299        52.60434        -2.19088
H         17.64652        54.74625        -1.66567
H         20.77680         5.98632         2.93049
H         18.63851         7.57910         1.05146
H         18.77263        56.87995        -1.77471
H         20.01715        59.12589        -2.00245
H         23.10438         2.24509         0.30321
H         21.04580         3.42718         1.08146
H         23.40426        62.50881        -1.61690
H         21.27020        61.29867        -1.84941
H         25.24739         3.48438         0.03950
H         26.54069         5.58393         0.25722
H         26.74948        59.26460        -0.58607
H         25.41390        61.35707        -0.75934
H         27.84588         7.67273         0.43368
H         29.14163         9.73943         0.40148
H         29.09419        55.04319         0.72926
H         27.93814        57.17191         0.13503
H         30.48039        11.90999         0.18944
H         31.68453        14.11727         0.12391
H         31.51043        50.79985         0.97883
H         30.27413        52.96595         1.03876
H         32.83677        16.29015         0.04226
H         33.95859        18.42690         0.20738
H         33.58580        46.22005         1.82642
H         32.70977        48.69107         1.02040
H         35.16788        20.61927         0.16366
H         36.40947        22.78096        -0.02384
H         36.29790        42.29884         1.14370
H         35.18334        44.38514         0.78488
H         37.39921        25.01146         0.25795
H         38.94979        26.94670        -0.78022
H         39.02757        37.97628        -0.26064
H         37.91173        39.98321         0.69434
H         39.94890        29.28396        -1.63573
H         41.40219        31.33782        -1.18071
H         41.41389        33.63337        -1.02057
H         40.01321        35.72328        -1.13324
