         210
 CSIRO Nanostructure Databank - Neutral Graphene Oxide Data Set
C         30.31422        31.68363         0.43448
C         30.44590        32.90580         0.21239
C         30.45294        36.02197        -0.41767
C         30.48103        37.26147        -0.62517
C         30.51340        40.43181        -0.87417
C         30.39459        41.66618        -0.88879
C         32.78643        29.04558         0.34898
C         31.59236        29.43224         0.62936
C         32.93603        31.66679        -0.47218
C         31.02280        30.53540        -0.01357
C         32.87483        33.05763        -0.18577
C         31.63544        33.80915         0.33369
C         32.79566        35.94979        -0.28512
C         31.59939        35.21118        -0.21193
C         32.81575        37.37245        -0.48230
C         31.59593        38.12895        -0.62102
C         32.83891        40.26912        -0.64030
C         31.62457        39.54281        -0.70030
C         32.87663        41.72591        -0.74766
C         31.58742        42.51713        -1.27183
C         32.79959        44.40116        -0.44490
C         31.68702        43.90864        -0.68339
C         35.50975        27.42641         0.64941
C         35.32696        28.82093         0.45135
C         34.09172        29.50174         0.19818
C         35.30549        31.65394         0.04998
C         34.11087        30.92317        -0.15633
C         35.30514        33.05000        -0.11115
C         34.08819        33.76508        -0.12768
C         35.30710        35.97534        -0.47219
C         34.09980        35.26740         0.10193
C         35.30533        37.38063        -0.52023
C         34.05230        38.09940        -0.47718
C         35.30495        40.20950        -0.37062
C         34.06833        39.52285        -0.49937
C         35.27500        41.65313         0.04518
C         34.04631        42.39957        -0.45125
C         35.32139        44.51860        -0.16222
C         34.11822        43.86095        -0.32512
C         35.53658        45.88344         0.20528
C         37.90259        27.43064         0.89578
C         36.61209        26.85439         0.81412
C         37.83470        28.86410         0.75773
C         36.58168        29.51303         0.55338
C         37.83506        31.76244         0.56587
C         36.52594        30.98561         0.54207
C         37.85747        33.12852        -0.00085
C         36.58861        33.73599        -0.37802
C         37.84007        35.94624        -0.64351
C         36.56241        35.23738        -0.68123
C         37.78859        37.40307        -1.04009
C         36.52421        38.11628        -0.65083
C         37.80363        40.23948        -0.41119
C         36.53719        39.51622        -0.48707
C         37.80910        41.64270        -0.25218
C         36.57509        42.38014        -0.21873
C         37.87530        44.42357        -0.33458
C         36.58898        43.77391        -0.27926
C         37.82300        46.51897         0.50169
C         36.39606        46.65145         0.68106
C         40.39599        24.72997         1.47934
C         39.34192        25.37568         1.27294
C         40.38780        27.47164         1.08966
C         39.13257        26.75878         1.07432
C         40.35811        28.89012         0.89324
C         39.09384        29.60704         0.76725
C         40.32727        31.78382         0.51356
C         39.08638        30.99721         0.61277
C         40.31490        33.16137        -0.03400
C         39.05538        33.82036        -0.21661
C         40.30489        35.92485        -0.66596
C         39.04007        35.24035        -0.54976
C         40.28075        37.37930        -0.92563
C         39.04673        38.14533        -0.70551
C         40.32312        40.24204        -0.38278
C         39.05343        39.52234        -0.51601
C         40.29265        41.66140        -0.09751
C         39.05803        42.34754        -0.07977
C         40.29744        44.62683         0.27139
C         39.05489        43.77692        -0.01350
C         40.10584        45.60415         1.47490
C         38.85519        46.58565         1.39914
C         40.05515        47.95455         3.04275
C         39.04421        47.52076         2.44211
C         42.95202        24.85353         1.88292
C         41.67257        25.34984         1.57498
C         42.84914        27.56547         1.39725
C         41.63716        26.79108         1.32623
C         42.82795        28.96544         1.06152
C         41.59615        29.58579         0.80534
C         42.80129        31.61105        -0.18399
C         41.62071        31.04826         0.57308
C         42.79618        33.12688        -0.22340
C         41.53075        33.83071        -0.24601
C         42.79627        35.95503        -0.57940
C         41.52430        35.24886        -0.53674
C         42.83052        37.36892        -0.60258
C         41.59251        38.13464        -0.84414
C         42.81863        40.25457        -0.36340
C         41.52983        39.55843        -0.50303
C         42.78578        41.69831         0.01483
C         41.49549        42.40040         0.17516
C         42.73856        44.41665         0.91789
C         41.51513        43.74869         0.52084
C         42.67031        45.75791         1.45614
C         41.41546        46.36491         1.79232
C         42.63826        48.13481         2.81657
C         41.36853        47.56124         2.57681
C         43.95218        25.62055         2.01470
C         45.24672        27.86627         2.19317
C         44.09349        26.98858         1.80445
C         45.30276        29.14930         1.34347
C         44.08208        29.71632         0.94202
C         45.28121        31.68912         0.07996
C         44.09373        31.01693         0.33368
C         45.24026        32.98685        -0.70180
C         43.98733        33.79231        -0.43908
C         45.27193        35.91956        -0.57212
C         44.02372        35.22790        -0.52850
C         45.28548        37.33843        -0.44825
C         44.05373        38.05971        -0.42302
C         45.27074        40.13206         0.05710
C         44.07219        39.47585        -0.20850
C         45.26839        41.50723         0.60864
C         43.98137        42.27686         0.68207
C         45.22123        44.35155         1.21286
C         43.97699        43.73363         0.90890
C         45.17001        45.73193         1.60165
C         43.92774        46.38634         1.79286
C         43.71825        47.64077         2.40745
C         47.60538        27.85023         1.76559
C         46.60606        27.18987         2.07665
C         47.80512        29.12558         1.15595
C         46.53415        29.78372         0.98259
C         47.75499        31.67695        -0.09587
C         46.53566        31.06045         0.33848
C         47.72635        33.05460        -0.55139
C         46.53778        33.76461        -0.62384
C         47.72873        35.94023        -0.74279
C         46.52615        35.21216        -0.67466
C         47.74636        37.36134        -0.57014
C         46.51943        38.05463        -0.37050
C         47.74754        40.17057         0.05265
C         46.52272        39.45295        -0.07556
C         47.74992        41.57572         0.42246
C         46.53618        42.25459         0.69557
C         47.74065        44.30451         1.24258
C         46.48313        43.63116         1.06424
C         47.56146        45.65748         1.64348
C         46.47566        46.25015         1.81832
C         50.27269        29.09854         0.61497
C         48.98368        29.69403         0.67699
C         50.19943        31.51534        -0.58959
C         48.99394        30.99412         0.03932
C         50.14765        32.80773        -1.21829
C         49.04009        33.72926        -0.77193
C         50.13815        36.07757        -1.45767
C         49.03151        35.23475        -0.89492
C         50.16930        37.45412        -1.03931
C         48.97072        38.10719        -0.57273
C         50.20355        40.25980        -0.27501
C         48.97299        39.50243        -0.25359
C         50.23563        41.63525         0.15784
C         48.99792        42.27717         0.52925
C         50.26267        44.19535         1.01589
C         48.95909        43.64476         0.97316
C         51.30582        29.44729         0.00853
C         52.33158        31.23918        -1.57082
C         51.38367        30.68059        -0.70466
C         52.25027        32.31917        -2.21821
C         51.16085        33.21316        -2.10634
C         52.29259        36.39750        -2.45650
C         51.17018        35.54861        -2.24935
C         52.31030        37.54427        -1.93671
C         51.33316        38.26517        -1.23279
C         52.49396        40.46950        -0.74784
C         51.37644        39.61091        -0.77495
C         52.59109        41.64453        -0.31456
C         51.49020        42.37664         0.18316
C         51.36205        43.70073         0.67801
O         36.54179        34.23268        -1.77152
O         44.45482        41.54265         1.86186
O         43.01383        41.32965        -1.39109
O         51.06094        34.33679        -2.90204
O         38.02852        45.77828        -0.68076
O         40.98787        37.79779        -2.15501
O         31.86681        30.99855        -1.10471
O         37.01579        31.61004         1.78605
O         49.44518        34.57031         0.37405
O         41.18427        31.77379         1.75500
O         35.13842        41.62422         1.51409
H         35.09579        42.55247         1.82922
O         45.10681        32.56922        -2.11949
H         45.91924        32.07319        -2.35925
O         42.65900        31.15754        -1.56195
H         43.40765        31.56013        -2.06887
O         45.05240        28.27454         3.54801
H         44.92595        27.47656         4.10237
O         31.68483        42.58590        -2.66374
H         30.89535        43.03684        -3.02618
O         37.75795        37.38131        -2.52010
H         38.65762        37.14280        -2.83503
O         34.22574        35.43968         1.55484
H         33.48705        34.92051         1.96278
O         31.88213        33.95160         1.76546
H         31.09427        34.37693         2.16681
O         40.61483        45.44699        -0.87116
H         40.72406        44.86797        -1.65345
O         39.81374        44.76166         2.60108
H         39.77093        45.32298         3.40477
