         294
 CSIRO Nanostructure Databank - Neutral Graphene Oxide Data Set
C          1.35055         1.98529         0.72182
C          1.28089         3.34746         0.30161
C          2.54364         1.39430         0.99882
C          2.43775         4.08963         0.05472
C          1.14612         6.31072        -0.00892
C          1.16104         7.70353        -0.06466
C          2.33990         5.52427        -0.34066
C          2.32784         8.45591        -0.19670
C          1.30134        10.61642         0.66475
C          1.33378        11.95514         0.82012
C          2.26608         9.96963        -0.30737
C          2.44118        12.76882         0.32924
C          1.17074        14.89577         0.50939
C          1.15647        16.30971         0.76702
C          2.36091        14.21127         0.43552
C          2.30159        17.06077         0.63666
C          2.43245        18.35584         1.24671
C          3.83864         2.14974         0.91915
C          3.71460         3.49416         0.23145
C          4.95992         1.26541         0.32954
C          4.93097         4.16920        -0.09568
C          3.61160         6.28659        -0.57199
C          3.65994         7.75863        -0.19179
C          4.92236         5.58705        -0.44860
C          4.75890         8.50443        -0.97286
C          3.67479        10.62158        -0.12835
C          3.60611        12.13367        -0.10769
C          4.69342        10.04352        -1.14155
C          4.86191        12.81680        -0.20054
C          3.64204        15.00454         0.66063
C          3.49146        16.38317        -0.03857
C          4.89942        14.25142         0.21929
C          4.72976        17.34404        -0.15814
C          3.64389        18.95447         1.45228
C          4.87823        18.44241         0.88985
C          6.24713         2.04067         0.14160
C          6.15411         3.47307        -0.02234
C          7.42665         1.37111        -0.05520
C          7.38980         4.14496        -0.46903
C          6.07337         6.30000        -0.69473
C          6.05517         7.76139        -1.02229
C          7.33841         5.57204        -0.88990
C          7.31673         8.55507        -0.93563
C          6.09211        10.74215        -1.10427
C          6.04176        12.14938        -0.53718
C          7.29609         9.90278        -0.72045
C          7.30250        12.84383        -0.55586
C          6.08664        15.05982        -0.18288
C          6.06329        16.57662        -0.44940
C          7.33458        14.34920        -0.70129
C          7.27124        17.16843         0.34746
C          6.04839        19.13694         1.01644
C          7.29001        18.70887         0.24736
C          8.71079         2.05747        -0.48484
C          8.67705         3.52051         0.01249
C          9.98192         1.39484        -0.00193
C          9.95009         4.28017        -0.37972
C          8.59226         6.32410        -1.23122
C          8.57269         7.82272        -1.28096
C          9.91487         5.53162        -1.29552
C          9.89645         8.57309        -1.42057
C          8.48490        10.73632        -1.17703
C          8.50373        12.18159        -0.72960
C          9.80646        10.02880        -1.00530
C          9.75778        12.92572        -0.72437
C          8.54173        14.94304         0.03759
C          8.54722        16.46929        -0.09762
C          9.79706        14.27109        -0.46210
C          9.82556        17.22042        -0.00206
C          8.61504        19.29526         0.68888
C          9.83253        18.66597         0.37897
C         11.17754         2.03709        -0.02926
C         11.22714         3.50709        -0.37678
C         12.38917         1.34169         0.44666
C         12.36993         4.22595        -1.16062
C         11.12834         6.39330        -0.98599
C         11.07944         7.81091        -0.84728
C         12.34876         5.69292        -0.74490
C         12.17993         8.49478        -0.36403
C         10.94261        10.70044        -0.69615
C         11.03279        12.17649        -1.04459
C         12.15997         9.98302        -0.12809
C         12.27539        12.88399        -0.51020
C         11.06793        14.98655        -0.17850
C         11.07968        16.42648         0.20310
C         12.32683        14.37859        -0.76406
C         12.38892        17.19140         0.37556
C         11.07197        19.31582         0.35343
C         12.32039        18.62121        -0.16212
C         13.62636         1.49894        -0.09512
C         13.69851         3.58980        -0.84992
C         14.91244         1.04915         0.41137
C         14.74394         4.11745        -0.17901
C         13.44711         6.31082        -0.18327
C         13.38657         7.76899         0.18745
C         14.58375         5.50841         0.43376
C         14.69573         8.51615        -0.12165
C         13.47117        10.62244        -0.67369
C         13.53153        12.10381        -0.34839
C         14.72730         9.86211        -0.27906
C         14.82175        12.80909        -0.47839
C         13.58774        15.06967        -0.29916
C         13.61552        16.41697        -0.07750
C         14.85895        14.27676        -0.09206
C         14.87744        17.16837        -0.05145
C         13.60620        19.35274         0.27188
C         14.87008        18.53677         0.05969
C         16.02753         1.84465         0.35015
C         16.06004         3.31863        -0.10843
C         17.32072         1.22934         0.60471
C         17.10911         4.07576         0.70577
C         15.88955         6.32291         0.44980
C         15.93711         7.64755        -0.30348
C         17.16563         5.57208         0.56673
C         17.23989         8.44924         0.00917
C         16.03463        10.64631        -0.15390
C         15.98664        12.10452        -0.58671
C         17.20550         9.80666        -0.75135
C         17.26301        12.81738        -0.52358
C         16.05993        14.99468        -0.69334
C         16.13793        16.44012        -0.23207
C         17.31833        14.18185        -0.48742
C         17.34105        17.07674        -0.06656
C         16.15195        19.32267        -0.10044
C         17.41391        18.51840         0.13789
C         18.47652         1.93375         0.80673
C         18.39070         3.39455         1.03222
C         19.77992         1.31074         0.93706
C         19.64874         4.18662         1.08918
C         18.48107         6.18215         0.16277
C         18.52543         7.64342        -0.19216
C         19.69305         5.48251         0.67806
C         19.76128         8.41120         0.02674
C         18.55460        10.54893        -0.74166
C         18.53469        12.03446        -0.59504
C         19.88972         9.76903        -0.62478
C         19.72140        12.74014         0.01461
C         18.61005        14.91644        -0.57624
C         18.61005        16.30664        -0.02441
C         19.88848        14.15198        -0.54641
C         19.91278        16.97251         0.31093
C         18.58744        19.14721         0.39585
C         19.91988        18.46856         0.65409
C         20.88402         2.00551         1.28496
C         20.88664         3.48063         1.61483
C         22.15347         4.15000         1.12176
C         20.95245         6.27006         0.83929
C         20.96231         7.76057         0.53835
C         22.19556         5.45393         0.81286
C         22.23907         8.49763         0.41553
C         21.03742        10.58897        -0.03899
C         21.00377        11.95128         0.10978
C         22.25928         9.83072         0.19708
C         22.08776        12.74232         0.69817
C         21.25996        14.82264        -0.40771
C         21.16513        16.33681        -0.19426
C         22.13142        14.08972         0.59319
C         22.17751        17.12980        -0.62621
C         21.04103        19.21391        -0.02887
C         22.09267        18.57821        -0.57945
O          2.84301         5.86941        -1.71835
O         18.56452         6.60487        -1.24160
O          7.26592         4.45488        -1.89554
O         18.68679        11.43500        -1.92243
O         10.85402         4.37345         0.76594
O          6.52909        10.98239        -2.54468
O         19.30344        14.54358        -1.83582
O         11.04876        15.38011         1.25746
O         10.18901         8.66159        -2.84653
O         13.76751         2.26314        -1.28180
O         20.83306         7.20787         1.96108
O          5.94931        14.58924         1.19778
O         12.18978         4.12657        -2.53764
O         17.35728         3.67703         2.07658
O          8.34084         7.02738        -2.49350
O          5.20737         7.94584        -2.23589
O         19.20251        16.22400         1.35043
O         12.73656        12.53997         0.81967
O         16.56448         6.25733         1.73994
O          9.17757        16.95451        -1.30990
O         15.83183        15.05047        -2.13071
H         16.69466        15.18145        -2.57750
O         14.20343         5.30679         1.83410
H         15.04767         5.25230         2.34686
O          4.56045         0.71932        -0.93092
H          4.59337         1.42783        -1.60626
O         21.92708        14.61574        -1.68084
H         21.24465        14.73354        -2.37972
O         11.17920        12.18990        -2.48891
H         10.37492        11.79510        -2.88733
O          7.56588        14.56382        -2.11374
H          6.98672        13.96237        -2.62787
O         10.01123         5.00094        -2.62541
H         10.08841         5.74916        -3.25515
O         12.25568        14.58628        -2.19319
H         12.43727        15.52939        -2.38883
O         20.16168        18.57848         2.08499
H         19.67106        17.83215         2.49945
O          8.74265         2.02998        -1.92960
H          8.24678         2.80363        -2.28413
O         20.30292         9.46761        -1.99601
H         20.07641        10.25952        -2.53753
O          8.03732        10.84129        -2.61642
H          9.36218         8.92389        -3.30786
O         13.43206        10.54958        -2.11729
H         13.29270         9.61641        -2.38474
O         12.07240        10.17944         1.30262
H         12.50844         9.41118         1.74914
O          4.18849        10.29333         1.19873
H          3.68235        10.82066         1.85361
O          8.57668         3.50934         1.44871
H          9.49416         3.62787         1.79670
O          4.12690         7.67102         1.19518
H          4.19048         8.59491         1.54862
O         19.30466        12.94993         1.39911
H         20.02696        13.41381         1.87452
O         12.58109        17.35831         1.80614
H         12.40119        16.48315         2.22001
O          8.45217        14.60562         1.44290
H          9.35145        14.76136         1.82610
O         15.04518        14.24289         1.35353
H         14.25989        13.77861         1.72549
O         15.89230         7.20811        -1.67520
H         16.18238         7.95605        -2.25293
O         17.29226         8.75136         1.40996
H         17.17175         7.91234         1.91794
O          7.10905        16.90782         1.75395
H          7.34091        15.95939         1.92916
O         13.29644         7.82797         1.66548
H         13.52077         6.92213         2.01690
O          4.27250         2.41871         2.29404
H          3.58704         2.97443         2.72076
O         16.89031         9.56977        -2.13540
H         17.28756        10.30866        -2.65448
O          3.70095        15.19521         2.08789
H          4.65479        15.22731         2.33892
O         12.27417        18.55638        -1.60043
H         12.44012        19.46840        -1.92565
O         16.13650        20.50392         0.71938
H         16.23688        20.22875         1.65434
O          4.45465        18.13694        -1.35532
H          3.84137        18.85726        -1.09766
O          3.13073        16.03193        -1.39138
H          3.45565        16.76809        -1.96750
O         13.66418        20.58359        -0.44948
H         14.46750        21.06356        -0.14044
O          6.29546        16.77012        -1.85474
H          7.11664        16.28982        -2.12779
O          1.71411        10.28725        -1.60720
H          2.43085        10.17223        -2.28006
O         16.59655         3.30097        -1.45699
H         15.90223         2.93242        -2.04616
O          4.17360        10.28308        -2.46134
H          4.65774         9.67283        -3.06693
O         16.26378        10.84569         1.26317
H         15.53068        11.38956         1.61989
O          7.15676        19.18188        -1.11449
H          6.69274        18.48475        -1.64855
O         20.88935         3.58884         3.06742
H         20.81492         4.54031         3.29395
H          0.41389         1.41913         0.82685
H          0.29197         3.79436         0.13550
H          2.58288         0.35091         1.34378
H          0.20009         5.79853         0.21409
H          0.20137         8.23349         0.03229
H          0.48605        10.02414         1.10480
H          0.56452        12.45532         1.42675
H          0.21270        14.35801         0.44974
H          0.23623        16.76599         1.16361
H          1.52942        18.80393         1.68988
H          5.12144         0.40488         1.02510
H          3.69740        19.88271         2.04100
H          7.41883         0.26962        -0.02924
H          6.07743        20.03405         1.65595
H          9.94371         0.33453         0.29349
H          8.63546        20.36127         0.96823
H         12.27304         0.66445         1.30676
H         11.12294        20.39100         0.58542
H         15.00378         0.03425         0.83210
H         13.52813        19.57759         1.37831
H         17.36398         0.12875         0.58266
H         16.17893        19.69286        -1.16739
H         19.85101         0.22895         0.74527
H         18.57358        20.24124         0.52659
H         21.84455         1.47752         1.38819
H         23.07727         3.55092         1.10858
H         23.14755         5.92833         0.53168
H         23.17637         7.96480         0.62891
H         23.21861        10.36824         0.21297
H         22.84677        12.22466         1.30486
H         22.93918        14.65315         1.08324
H         23.07542        16.66822        -1.06081
H         21.01135        20.31289         0.00975
H         22.91762        19.15500        -1.02216
