         429
 CSIRO Nanostructure Databank - Neutral Graphene Oxide Data Set
C          3.38242         2.84815        -4.07188
C          3.00864         4.10642        -3.55637
C          4.32217         2.08100        -3.41558
C          3.57275         4.60063        -2.38137
C          2.43690         6.92475        -2.64387
C          2.12174         8.13419        -2.15015
C          3.09417         5.88831        -1.80510
C          2.38267         8.50823        -0.69070
C          1.13458        10.67111        -0.58558
C          1.04021        11.99885        -0.17154
C          2.36675        10.00791        -0.49077
C          2.20633        12.69105         0.16760
C          1.20782        15.66090        -0.65575
C          1.36240        16.68312        -1.57963
C          2.32228        14.91435        -0.24528
C          2.65838        17.03155        -2.00374
C          2.84028        18.17661        -2.85133
C          4.94040         2.55988        -2.22443
C          4.55877         3.83415        -1.68758
C          5.93121         1.79505        -1.57591
C          5.22656         4.31335        -0.50668
C          3.75036         6.39391        -0.54050
C          3.67690         7.83873        -0.26509
C          4.86403         5.61615         0.07702
C          4.75650         8.51717         0.26670
C          3.51723        10.71667        -0.10565
C          3.49411        12.13198         0.06405
C          4.67136         9.98183         0.43228
C          4.74427        12.91570         0.07790
C          3.63629        15.11807        -0.72856
C          3.79259        16.29141        -1.54182
C          4.80142        14.29014        -0.38512
C          5.09355        16.80585        -1.82012
C          4.08708        18.65446        -3.12856
C          5.24594        18.01972        -2.56685
C          6.62476         2.28906        -0.45044
C          6.29954         3.61161         0.05258
C          7.53411         1.47411         0.24093
C          7.24308         4.26691         0.95364
C          5.94274         6.37889         0.84341
C          5.94320         7.85959         0.76661
C          7.18617         5.65298         1.15322
C          7.10426         8.58572         1.07014
C          5.93572        10.77782         0.71657
C          5.95277        12.20489         0.30938
C          7.17691         9.99584         0.85965
C          7.22559        12.82750         0.19989
C          6.08684        14.87344        -0.61141
C          6.22719        16.15534        -1.26699
C          7.28563        14.18499        -0.23201
C          7.50016        16.77637        -1.41335
C          6.51096        18.60626        -2.70523
C          7.63968        18.01975        -2.10733
C          8.35379         2.00901         1.36577
C          8.42410         3.51896         1.30466
C          9.67838         1.36007         1.12566
C          9.63608         4.18485         1.48335
C          8.29391         6.38875         1.77324
C          8.22772         7.93327         1.87306
C          9.63477         5.62009         1.83035
C          9.60183         8.60833         1.65150
C          8.43500        10.66797         0.78627
C          8.44752        12.09863         0.46685
C          9.62118         9.94906         1.02084
C          9.66095        12.79387         0.45740
C          8.55142        14.85029        -0.30962
C          8.66215        16.15962        -0.86672
C          9.73235        14.17940         0.10643
C          9.91869        16.82042        -0.93976
C          8.92764        18.64024        -2.20559
C         10.04041        18.07649        -1.62481
C         10.88426         2.06947         1.09059
C         10.88350         3.50070         1.35045
C         12.11439         1.40634         0.89598
C         12.10080         4.20913         1.43289
C         10.90549         6.34820         1.74662
C         10.90545         7.83149         1.71560
C         12.09805         5.65007         1.58652
C         12.14824         8.41993         1.05911
C         10.92445        10.56171         0.76010
C         10.93328        12.05262         0.53957
C         12.19731         9.91518         1.13333
C         12.18895        12.76830         0.87303
C         10.98172        14.86356         0.05256
C         11.07143        16.18426        -0.39237
C         12.21891        14.22417         0.54411
C         12.35116        16.89342        -0.34876
C         11.41760        18.67937        -1.79897
C         12.28495        18.39293        -0.55147
C         13.35501         2.09143         1.01195
C         13.34248         3.51491         1.34167
C         14.56013         1.45839         0.73536
C         14.55236         4.18943         1.61054
C         13.37780         6.34130         1.65372
C         13.41250         7.75047         1.53269
C         14.57110         5.57889         1.80468
C         14.60999         8.48839         1.62404
C         13.41464        10.60842         1.14681
C         13.46040        12.03067         0.97407
C         14.65725         9.88707         1.40009
C         14.66109        12.78325         1.09074
C         13.53549        14.73667         0.01201
C         13.52080        16.23681        -0.12791
C         14.72540        14.14611         0.74403
C         14.85599        16.86218        -0.41895
C         13.64109        19.04139        -0.60411
C         14.82332        18.37459        -0.43695
C         15.83540         2.25111         0.73455
C         15.78087         3.32945         1.83961
C         17.07363         1.40292         0.78021
C         17.10434         4.10370         1.90910
C         15.83753         6.27711         2.11371
C         15.84786         7.80071         2.02584
C         17.12082         5.58411         1.90236
C         17.13535         8.48917         1.82215
C         15.88886        10.59419         1.57765
C         15.85748        12.08099         1.61861
C         17.10558         9.91994         1.75938
C         17.15947        12.85011         1.66024
C         15.93800        14.92694         0.84202
C         15.95955        16.26581         0.41836
C         17.17517        14.26772         1.24058
C         17.16066        17.08068         0.57424
C         16.08566        19.06270        -0.43931
C         17.26248        18.42714        -0.05520
C         18.32559         2.00927         0.94955
C         18.36920         3.39131         1.52799
C         19.50470         1.40737         0.49299
C         19.57717         4.20289         1.28579
C         18.29989         6.29843         1.69554
C         18.32806         7.75660         1.73452
C         19.52865         5.57183         1.37326
C         19.58695         8.49350         1.60481
C         18.37656        10.66167         2.13380
C         18.42180        12.09703         1.66238
C         19.62600         9.89842         1.76241
C         19.63282        12.76004         1.50888
C         18.40520        14.89924         1.12300
C         18.44305        16.35710         0.91075
C         19.65890        14.18751         1.27513
C         19.72978        16.92762         0.35715
C         18.52396        19.07592        -0.09615
C         19.74248        18.43034         0.21475
C         20.73176         2.23541         0.19426
C         20.85023         3.37534         1.26743
C         21.97220         1.39719        -0.12366
C         22.07618         4.21413         1.03983
C         20.71181         6.36995         0.96393
C         20.77908         7.80662         1.26566
C         22.00542         5.64188         0.71473
C         22.02443         8.48202         1.20687
C         20.85796        10.59718         1.66973
C         20.89178        12.05305         1.63586
C         22.05857         9.87066         1.47773
C         22.09754        12.76350         1.58171
C         20.88462        14.86968         1.25309
C         20.88581        16.34753         1.13259
C         22.12769        14.18536         1.39512
C         22.16817        17.09787         1.17224
C         20.96982        19.09455         0.20363
C         22.20658        18.47352         0.59403
C         23.21994         1.55640         0.41401
C         23.29750         3.62915         1.14536
C         24.52218         1.17356        -0.08243
C         24.51058         4.22871         0.63106
C         23.27904         6.38363         0.77827
C         23.26961         7.77801         0.94968
C         24.48743         5.66888         0.58166
C         24.52214         8.48757         0.92810
C         23.35517        10.54076         1.64905
C         23.38175        12.06221         1.75588
C         24.58730         9.86542         1.22943
C         24.64899        12.74868         1.44092
C         23.37886        14.88604         1.32479
C         23.42441        16.31533         1.23288
C         24.62662        14.16853         1.30401
C         24.62826        17.00647         1.13720
C         23.41078        19.12522         0.56675
C         24.60999        18.51688         1.25546
C         25.65157         2.01749         0.00645
C         25.60156         3.48029         0.16862
C         26.93496         1.39622        -0.16662
C         26.75211         4.25469        -0.35644
C         25.69401         6.39581         0.35508
C         25.72062         7.80060         0.58391
C         26.83366         5.71880        -0.12500
C         26.97146         8.48655         0.57030
C         25.82572        10.56198         1.21955
C         25.84719        12.01906         1.33187
C         27.02299         9.85718         0.95346
C         27.08774        12.72016         1.14554
C         25.85568        14.86684         1.13391
C         25.86496        16.29735         1.06116
C         27.08811        14.14549         1.06973
C         27.08838        16.99644         0.91652
C         25.90311        19.15686         0.85591
C         27.08817        18.44648         0.78814
C         28.13952         2.09545        -0.29571
C         28.06494         3.53601        -0.60591
C         29.41708         1.49605        -0.26226
C         29.33445         4.36548        -0.45149
C         28.02361         6.45493        -0.35385
C         28.12400         7.77927         0.09606
C         29.14897         5.74299        -1.08926
C         29.44906         8.44542         0.18660
C         28.33379        10.53114         1.31563
C         28.32023        12.01684         1.03735
C         29.56699         9.81688         0.76230
C         29.53645        12.69945         0.90621
C         28.32581        14.85132         0.95738
C         28.31819        16.28365         0.87930
C         29.55882        14.13814         0.91217
C         29.55076        16.99338         0.80961
C         28.33679        19.12370         0.62303
C         29.55674        18.44274         0.68907
C         30.61606         2.20345        -0.54654
C         30.58980         3.63107        -0.86104
C         31.84634         1.53231        -0.56217
C         31.72343         4.30783        -1.25667
C         30.44057         6.53996        -1.17449
C         30.56750         7.93829        -0.66378
C         31.68373         5.77700        -1.53981
C         31.90216         8.58652        -0.56825
C         30.79930        10.59781         0.47919
C         30.77926        11.96199         0.72522
C         31.98255         9.91260        -0.03221
C         32.04659        12.69759         0.82456
C         30.79429        14.86604         0.90483
C         30.76623        16.28445         0.89943
C         32.05501        14.16751         0.83765
C         32.01149        17.04832         1.07300
C         30.79018        19.14692         0.61687
C         32.02745        18.49678         0.77626
C         33.06362         2.20537        -0.85803
C         33.02658         3.64958        -1.16286
C         34.26387         1.51642        -0.91439
C         34.19576         4.36926        -1.17744
C         32.96837         6.55439        -1.65265
C         33.03857         7.95626        -1.12325
C         34.26553         5.74899        -1.80769
C         34.29112         8.63012        -1.12986
C         33.20517        10.60990        -0.15837
C         33.32959        11.96614         0.39107
C         34.35617        10.00262        -0.74050
C         34.49149        12.78257         0.03092
C         33.27583        14.83458         0.73519
C         33.33537        16.28278         0.98460
C         34.48681        14.16454         0.31866
C         34.54030        17.03989         0.63821
C         33.25850        19.16321         0.69527
C         34.50968        18.47125         0.63241
C         35.51170         2.22268        -1.34676
C         35.47812         3.67363        -0.76304
C         36.79764         1.50922        -0.97346
C         36.72485         4.36771        -1.17208
C         35.51730         6.53383        -1.50513
C         35.53370         7.91725        -1.40635
C         36.74419         5.73885        -1.63719
C         36.79125         8.64623        -1.38313
C         35.57074        10.75063        -0.89239
C         35.61885        12.15315        -0.57247
C         36.79368        10.09480        -1.26881
C         36.80272        12.89940        -0.76495
C         35.68786        14.91211         0.13036
C         35.72069        16.33708         0.31677
C         36.86186        14.24560        -0.32968
C         36.94330        17.05101         0.14072
C         35.71990        19.16978         0.42992
C         36.94268        18.48618         0.21842
C         37.96439         2.18299        -0.80750
C         37.96644         3.66850        -0.84753
C         39.23950         1.54885        -0.46923
C         39.26366         4.39575        -0.81478
C         38.09924         6.51543        -1.57074
C         38.01721         7.96680        -1.40145
C         39.31587         5.84534        -1.11664
C         39.26164         8.66021        -1.29767
C         37.97136        10.81874        -1.50016
C         37.95158        12.33900        -1.56993
C         39.23385        10.08638        -1.66370
C         39.28473        12.97226        -1.19075
C         38.11127        14.94234        -0.32578
C         38.15271        16.33955        -0.08721
C         39.32910        14.21569        -0.61520
C         39.39380        17.06022        -0.20236
C         38.15770        19.18105         0.01973
C         39.37346        18.49183        -0.19338
C         40.41643         2.21250        -0.45740
C         40.55728         3.62971        -0.96834
C         41.67899         4.44893        -0.36092
C         40.46709         6.55361        -0.83203
C         40.47460         7.99588        -1.04400
C         41.63134         5.80007        -0.35395
C         41.66551         8.78631        -0.86963
C         40.56490        10.83569        -1.70977
C         40.53212        12.37522        -1.82480
C         41.70309        10.12896        -1.11106
C         41.80774        13.02011        -1.34379
C         40.61726        14.85796        -0.12994
C         40.62332        16.36559        -0.34355
C         41.84606        14.15782        -0.64509
C         41.79671        17.09171        -0.52976
C         40.59649        19.19642        -0.38930
C         41.77595        18.50280        -0.57146
O         17.96485         3.49236         2.95625
O         21.28671        17.02798         2.35887
O         17.75239        17.10858         1.93503
O          2.45705         5.68543        -0.49009
O         15.76898         7.10509         3.31910
O         40.02336        10.25097        -2.93387
O         10.42628         8.54091         2.88629
O         11.06771        11.15825        -0.60597
O         38.57383         4.18147         0.47073
O         23.35659         2.31172         1.60152
O          2.06610        13.96279         0.74114
O          4.98062        10.45312         1.78183
O          8.80323         5.84488         3.02990
O         29.88315         8.62267         1.58579
O         21.14663         6.03658        -0.41278
O          4.81163         5.72738         1.52728
O         32.75415        16.68597         2.27508
O         23.46501        11.22478         2.95018
O         30.18993         7.69221        -2.05948
O         32.95474        12.09200         1.80259
O         27.18234         3.83246        -1.70699
O         32.14364         6.28217        -2.84132
O         16.34687        12.61718         2.90107
O         12.11123        13.80149         1.92959
O         37.56317         6.00785        -2.82740
O         11.99006         8.08101        -0.36867
H         12.60645         8.64457        -0.88296
O         15.56127         2.67168         3.10064
H         16.42875         2.65047         3.57030
O         18.35213        10.74325         3.59995
H         17.59933        11.34047         3.83000
O         12.04284        18.09806        -2.95764
H         11.83514        17.14059        -2.96779
O         24.44153        18.81515         2.69148
H         23.59476        18.40709         2.97699
O         40.43632        12.69943        -3.24627
H         40.32533        11.83777        -3.72195
O         28.75859         5.54871        -2.46040
H         28.93489         6.39092        -2.93531
O         29.49851         4.61382         0.97670
H         29.73573         3.76672         1.41093
O         15.16718        16.46211        -1.82023
H         14.62723        17.03776        -2.40618
O          1.28531         7.99201         0.09655
H          1.35971         7.00551         0.08467
O         35.48585         2.38877        -2.78846
H         35.30688         1.51778        -3.19859
O         13.61627        14.21317        -1.35942
H         14.32477        14.73854        -1.80947
O         35.45887         3.56125         0.68996
H         36.38492         3.59259         1.01604
O         37.68887        12.72253        -2.96738
H         38.56871        12.87166        -3.39316
O         20.44109         2.94725        -1.04817
H         20.28717         2.28594        -1.75446
O         20.94964         2.77492         2.57630
H         20.04881         2.63886         2.93928
O         40.62021        14.69179         1.32536
H         40.55527        13.73330         1.51872
O         34.44973         5.43857        -3.22267
H         33.55619         5.49775        -3.64231
O         11.55819        18.97434         0.56192
H         12.06127        18.79337         1.38297
O          7.84533         8.23413         3.23081
H          8.48463         7.76676         3.81512
O         19.87311        16.38239        -0.99206
H         19.24636        16.85443        -1.58021
O         28.41029        10.42899         2.76893
H         28.82680         9.55814         2.96660
O          7.79073         1.62585         2.66287
H          8.23873         2.15656         3.35439
O         15.89190         3.00954        -0.53263
H         15.90706         2.36078        -1.26755
O         40.81625         3.53796        -2.39980
H         41.69303         3.12008        -2.52653
H          2.90992         2.48072        -4.99308
H          2.24047         4.68849        -4.08346
H          4.61487         1.09724        -3.80923
H          2.22121         6.68896        -3.69690
H          1.61425         8.87029        -2.79282
H          0.23366        10.10387        -0.85386
H          0.06643        12.49719        -0.08336
H          0.22358        15.42011        -0.23427
H          0.49663        17.26241        -1.92940
H          1.94590        18.68547        -3.23923
H          6.18533         0.79928        -1.96823
H          4.22208        19.55404        -3.74578
H          7.68818         0.43806        -0.09539
H          6.61553        19.55122        -3.25815
H          9.70212         0.26641         1.00550
H          9.01480        19.58680        -2.75984
H         12.11501         0.32959         0.66983
H         11.34819        19.78106        -1.97104
H         14.56897         0.40278         0.42165
H         13.65575        20.14101        -0.66921
H         17.03087         0.39079         0.34503
H         16.11167        20.11991        -0.74394
H         19.43840         0.39443         0.06299
H         18.55140        20.13744        -0.38748
H         21.90076         0.83810        -1.07263
H         20.99162        20.16690        -0.04535
H         24.67031         0.17127        -0.51579
H         23.47661        20.15700         0.18920
H         26.97245         0.29709        -0.11881
H         25.92549        20.25371         0.76460
H         29.49041         0.41792        -0.05432
H         28.33445        20.21922         0.52134
H         31.87303         0.45174        -0.35673
H         30.77096        20.23519         0.45671
H         34.29678         0.44941        -0.64366
H         33.26299        20.25508         0.56047
H         36.78819         0.40814        -0.91510
H         35.71282        20.26969         0.42772
H         39.21332         0.48307        -0.19223
H         38.15954        20.28114         0.04031
H         41.33783         1.67374        -0.18348
H         42.58211         3.92866        -0.00473
H         42.49432         6.36171         0.03364
H         42.56655         8.30099        -0.46865
H         42.59467        10.70216        -0.81994
H         42.75066        12.57810        -1.70182
H         42.82325        14.57524        -0.35781
H         42.76116        16.57777        -0.63969
H         40.58837        20.29579        -0.39149
H         42.71735        19.04827        -0.72601
