         404
 CSIRO Nanostructure Databank - Neutral Graphene Oxide Data Set
C          1.34180         1.99480        -1.09287
C          1.26811         3.35374        -0.82166
C          2.58268         1.35496        -1.06011
C          2.41501         4.07810        -0.43315
C          1.17334         6.25767        -0.48840
C          1.15420         7.67853        -0.51622
C          2.31791         5.52284        -0.22328
C          2.27615         8.45584        -0.27936
C          1.14873        10.64835        -0.74865
C          1.14000        12.04323        -0.79359
C          2.30617         9.90287        -0.41995
C          2.26678        12.79763        -0.42840
C          1.10725        15.00214        -0.37106
C          1.13093        16.38831        -0.31089
C          2.29932        14.23916        -0.41836
C          2.35154        17.10062        -0.35410
C          2.39856        18.52209        -0.18706
C          3.75494         2.02544        -0.68042
C          3.66242         3.39325        -0.27604
C          5.00937         1.17390        -0.94284
C          4.81792         4.16426         0.19615
C          3.50011         6.25612         0.25018
C          3.48675         7.79562         0.23488
C          4.80029         5.57582         0.26973
C          4.79005         8.48730         0.16186
C          3.51901        10.59793        -0.15403
C          3.46384        12.05665        -0.03309
C          4.77195         9.92605        -0.01616
C          4.82961        12.84372        -0.08150
C          3.55855        14.93387        -0.51830
C          3.57375        16.38077        -0.53933
C          4.77177        14.21966        -0.55161
C          4.79105        17.09395        -0.58162
C          3.59311        19.19297        -0.13013
C          4.83718        18.49815        -0.31084
C          6.25487         1.58333        -0.22543
C          6.00740         3.55570         0.63828
C          7.55026         1.51097        -0.61412
C          7.23709         4.22447         0.70645
C          5.99256         6.31721         0.47604
C          5.96341         7.76048         0.34571
C          7.24160         5.63207         0.61473
C          7.26623         8.42561         0.15241
C          5.99447        10.65460        -0.10506
C          6.05134        12.05829        -0.27136
C          7.26215         9.91282        -0.14936
C          7.27119        12.72741        -0.58894
C          6.01303        14.84338        -0.97837
C          6.03198        16.41839        -0.94838
C          7.30089        14.14889        -0.80767
C          7.31494        17.06234        -0.69390
C          6.07510        19.16050        -0.25926
C          7.31284        18.46404        -0.39302
C          8.64913         2.12468         0.14335
C          8.48559         3.42030         0.87355
C          9.89875         1.56420         0.03870
C          9.76038         4.21539         1.15955
C          8.49587         6.36547         0.77472
C          8.49047         7.76940         0.62015
C          9.69086         5.68869         1.09006
C          9.70963         8.55785         0.82745
C          8.51235        10.67848        -0.08227
C          8.50393        11.99967        -0.48756
C          9.74086        10.03490         0.40066
C          9.77168        12.65114        -0.86129
C          8.49646        14.88379        -0.85197
C          8.51972        16.32215        -0.75757
C          9.78372        14.16726        -0.99822
C          9.77390        17.00802        -0.62784
C          8.54830        19.12897        -0.27693
C          9.77441        18.43430        -0.41784
C         11.11366         2.20755         0.47632
C         11.07171         3.57339         0.90950
C         12.34716         1.55888         0.35482
C         12.26182         4.27526         1.10927
C         10.92615         6.44899         1.34893
C         11.00341         7.87613         0.98524
C         12.24499         5.70213         1.48531
C         12.21056         8.55336         0.85133
C         11.04967        10.59941         0.05095
C         11.05758        11.89789        -0.66539
C         12.21935         9.91949         0.33373
C         12.34348        12.70269        -0.66441
C         11.06114        14.88150        -0.77788
C         11.01912        16.30691        -0.64985
C         12.27455        14.18296        -0.64664
C         12.25103        17.02556        -0.54732
C         10.99607        19.13444        -0.31915
C         12.24779        18.47822        -0.41555
C         13.56581         2.22053         0.65433
C         13.52444         3.62384         0.98636
C         14.80591         1.54876         0.59508
C         14.70740         4.32517         1.32857
C         13.50588         6.46871         1.40522
C         13.48198         7.88210         1.16568
C         14.70707         5.73811         1.51937
C         14.69644         8.58744         1.12054
C         13.51656        10.56469        -0.00812
C         13.56320        12.03283        -0.18025
C         14.79719         9.88226         0.42421
C         14.75728        12.73822        -0.12136
C         13.49656        14.89102        -0.43797
C         13.46171        16.31564        -0.47396
C         14.74298        14.17848        -0.27668
C         14.73005        17.05950        -0.51993
C         13.43740        19.20950        -0.29277
C         14.74084        18.58701        -0.46452
C         16.00651         2.17629         0.99664
C         15.93400         3.55180         1.52940
C         17.24571         1.53304         0.92989
C         17.28021         4.32966         1.71617
C         15.95071         6.45526         1.85708
C         15.90558         8.01554         1.69476
C         17.25997         5.79403         1.72182
C         17.21354         8.75016         1.58519
C         16.03163        10.69452         0.54255
C         16.01453        12.06703         0.16971
C         17.23065        10.09072         0.95550
C         17.23185        12.79113         0.13004
C         15.96195        14.87775        -0.16761
C         15.94924        16.34459        -0.05409
C         17.20850        14.21824        -0.05903
C         17.23630        17.10649         0.03895
C         16.00685        19.26818        -0.14359
C         17.21703        18.58701        -0.10906
C         18.48550         2.22370         1.10439
C         18.51109         3.63150         1.36161
C         19.70468         1.54734         0.89818
C         19.72588         4.36408         1.33391
C         18.48174         6.48830         1.63530
C         18.51518         7.97856         1.66097
C         19.70649         5.78615         1.50161
C         19.75804         8.67149         1.23477
C         18.47329        10.76309         0.77706
C         18.47544        12.11721         0.33877
C         19.72458        10.06535         0.93661
C         19.71459        12.79141         0.08079
C         18.43133        14.95321        -0.17650
C         18.48580        16.35215        -0.17807
C         19.66053        14.18157        -0.44728
C         19.71689        17.07423        -0.30890
C         18.47162        19.22982         0.00011
C         19.69126        18.51165        -0.05330
C         20.94047         2.23769         0.94482
C         20.95617         3.64834         1.17267
C         22.15933         1.55720         0.70483
C         22.21400         4.34892         1.18665
C         21.00501         6.53382         1.71434
C         20.96907         7.97431         1.21902
C         22.21503         5.75266         1.27558
C         22.17819         8.69512         1.02889
C         20.94701        10.77509         0.76150
C         20.92827        12.14999         0.32696
C         22.18210        10.08774         0.90331
C         22.19353        12.82874         0.06214
C         20.93656        14.92482        -0.78181
C         20.94082        16.42468        -0.61265
C         22.18215        14.12906        -0.55724
C         22.13539        17.21701        -0.58155
C         20.90158        19.19406         0.17254
C         22.13878        18.54815        -0.02868
C         23.40159         2.22990         0.74103
C         23.43322         3.62214         1.02706
C         24.60980         1.51889         0.47780
C         24.75466         4.28496         1.32048
C         23.44092         6.44525         0.87186
C         23.42708         7.95067         0.73960
C         24.72730         5.74000         0.89142
C         24.71381         8.67934         0.67554
C         23.47397        10.86545         1.04782
C         23.41219        12.21537         0.35957
C         24.72530        10.06000         0.69902
C         24.64992        12.98883         0.25024
C         23.39494        14.63888        -1.00042
C         23.39681        16.78205        -1.06588
C         24.64903        14.23574        -0.49371
C         24.64734        17.30474        -0.72303
C         23.37800        19.17928         0.23558
C         24.63603        18.59350        -0.03774
C         25.88560         2.12706         0.47361
C         25.96977         3.52632         0.81271
C         26.96604         1.34876        -0.09415
C         27.14641         4.29449         0.59143
C         25.87312         6.43337         0.50827
C         25.89375         7.88350         0.38998
C         27.10619         5.70624         0.35662
C         27.08207         8.51548         0.01866
C         26.01183        10.77518         0.56191
C         26.04833        12.24838         0.29065
C         27.22013         9.98234         0.13678
C         27.12696        12.88344        -0.44078
C         25.83866        15.00169        -0.65199
C         25.83338        16.43757        -0.87304
C         27.09641        14.29146        -0.64567
C         27.08249        17.04962        -0.97499
C         25.80131        19.27222         0.44680
C         27.08481        19.01909        -0.06317
C         28.32341         1.62909         0.09859
C         28.43255         3.69340         0.53189
C         29.48121         1.27596        -0.62169
C         29.56759         4.26416        -0.07641
C         28.28369         6.35827        -0.08618
C         28.23770         7.75399        -0.33326
C         29.51061         5.66756        -0.33739
C         29.37878         8.41458        -0.85018
C         28.24696        10.63102        -0.71307
C         28.23804        12.09254        -1.00649
C         29.14553         9.77413        -1.28219
C         29.57750        12.87900        -1.32026
C         28.34108        14.99796        -0.81998
C         28.34102        16.41967        -0.75496
C         29.58896        14.31671        -0.95700
C         29.53833        17.15351        -0.44704
C         28.34397        19.22626         0.50145
C         29.52848        18.50608         0.10001
C         30.69639         2.04848        -0.58666
C         30.74126         3.49434        -0.39163
C         31.89306         1.39631        -0.93945
C         31.93424         4.21783        -0.67893
C         30.69780         6.38242        -0.66914
C         30.64690         7.78574        -0.91534
C         31.94184         5.65456        -0.72787
C         31.93094         8.57603        -0.68678
C         31.00700        10.80827        -1.60491
C         30.90187        12.19688        -1.33174
C         32.05797        10.01248        -1.16614
C         32.06867        12.86464        -0.95310
C         30.78220        15.03435        -0.81330
C         30.77520        16.43005        -0.48028
C         32.10853        14.36578        -1.10113
C         32.01366        17.08733        -0.18337
C         30.75077        19.07373         0.49395
C         31.99360        18.41694         0.32292
C         33.14086         2.06716        -1.00031
C         33.16528         3.50713        -0.90044
C         34.34635         1.35844        -1.16333
C         34.38810         4.19517        -0.99158
C         33.17264         6.36567        -0.85598
C         33.21062         7.79486        -0.87137
C         34.41107         5.63964        -0.92027
C         34.43021         8.48740        -0.80333
C         33.25714        10.69349        -0.83587
C         33.27828        12.12162        -0.79370
C         34.46756         9.94393        -0.71390
C         34.50055        12.78141        -0.48905
C         33.28206        15.01051        -0.42658
C         33.27804        16.38193        -0.19019
C         34.45309        14.19136         0.03409
C         34.51684        17.08189         0.08069
C         33.19662        19.02487         0.76360
C         34.46697        18.42779         0.62033
C         35.59748         2.02086        -1.14498
C         35.62353         3.46027        -1.05187
C         36.81990         1.31328        -1.24237
C         36.85821         4.12569        -0.95963
C         35.62667         6.33291        -0.88725
C         35.66855         7.75097        -0.75982
C         36.93346         5.62241        -1.11881
C         36.90677         8.42524        -0.58465
C         35.67899        10.64401        -0.65233
C         35.70522        12.06382        -0.46781
C         36.93815         9.88941        -0.70723
C         36.96608        12.76844        -0.23663
C         35.75322        14.92306        -0.13894
C         35.73858        16.35004        -0.12818
C         36.96065        14.21320        -0.16324
C         36.98474        16.99797        -0.30085
C         35.58506        19.12440         1.18890
C         36.91696        18.90798         0.75347
C         38.05294         1.97395        -1.11360
C         38.06744         3.39294        -0.89049
C         39.30997         1.28992        -1.20089
C         39.30731         4.04583        -0.60116
C         38.04488         6.23982        -0.29432
C         38.12499         7.72205        -0.30280
C         39.27804         5.42322        -0.05298
C         39.31103         8.36582         0.03890
C         38.20785        10.62295        -0.36485
C         38.16860        12.07850        -0.11362
C         39.33680         9.83553         0.19552
C         39.43102        12.76327         0.01836
C         38.22785        14.90541        -0.11101
C         38.24052        16.36414        -0.11619
C         39.42451        14.19553        -0.05435
C         39.40848        17.08449         0.25400
C         38.15145        19.03741         1.33845
C         39.39548        18.59519         0.57093
C         40.49648         1.96714        -1.04982
C         40.51442         3.35655        -0.70733
C         41.76341         4.05440        -0.43455
C         40.57480         6.11158         0.27965
C         40.56573         7.63695         0.36800
C         41.80640         5.33640        -0.00125
C         41.82540         8.41644         0.24684
C         40.64926        10.59218         0.38019
C         40.65079        12.05523         0.13002
C         41.86962         9.76297         0.25670
C         41.88131        12.80050         0.16891
C         40.70567        14.97302        -0.24911
C         40.62993        16.34551         0.40353
C         41.92534        14.15616         0.07739
C         41.72138        16.90314         1.04058
C         40.61347        19.03830         1.33851
C         41.68710        18.24306         1.54970
O          4.12557        12.58076         1.16080
O         23.22303         7.12361        -0.45936
O         36.95448        18.35342        -0.57951
O          5.97604         2.20122         1.00645
O         29.96672        10.21455        -2.31998
O         27.06618        10.42769         1.53400
O         39.77352        10.25464         1.52359
O         16.54276         3.72273         2.83727
O          7.37374         8.91913        -1.25791
O         16.47311        16.74843         1.26322
O         23.38187        15.67803        -1.93202
O          3.27074         7.04347         1.46961
O         28.62797        12.50740        -2.35250
O         17.96101         8.65167         2.84219
O         14.88962        17.81485        -1.74812
O          9.56783         9.65717         1.81360
O          9.73367        13.28060        -2.17317
O         11.87337        11.98044        -1.86929
O         40.54530         6.78328         1.57301
O         37.90028        10.32123        -1.76655
O         15.75722         7.36646         2.97833
O         14.32398         9.80901        -0.98012
O         25.52235        13.00169         1.42906
O         20.10178        14.36740        -1.85054
O          5.94042        15.64660        -2.18467
O         28.59077         2.48920         1.20109
O         38.24992         5.59603         0.99023
O         27.10338        18.39679        -1.33368
O         11.47679         6.07536         2.67628
O          9.01357         3.51193         2.22684
O         39.45642        19.29496        -0.70508
H         38.60091        19.11907        -1.16228
O         24.87831         4.28285         2.80058
H         25.76790         4.63083         3.02415
O         34.25751        14.04301         1.50039
H         35.02420        13.53782         1.84708
O         31.86012         8.78596         0.78739
H         31.91382         7.90331         1.21375
O         23.60728        11.14633         2.47939
H         24.37913        11.75471         2.57557
O         32.34939        14.57982        -2.54769
H         31.56036        14.24947        -3.02950
O         21.15195         6.66391         3.18011
H         20.33747         7.09144         3.52473
O          5.27802         1.18083        -2.34877
H          4.44558         0.98188        -2.82447
O         40.78908        15.24995        -1.69472
H         40.76274        14.38748        -2.16058
O         37.30756         5.87001        -2.51639
H         36.57291         5.55704        -3.08510
H          0.44027         1.43458        -1.37468
H          0.29733         3.85834        -0.90598
H          2.64632         0.29435        -1.34838
H          0.24565         5.74925        -0.78418
H          0.21558         8.15705        -0.82874
H          0.21897        10.11755        -0.99340
H          0.21727        12.55485        -1.10147
H          0.13987        14.48367        -0.31353
H          0.18915        16.94564        -0.20358
H          1.45226        19.06785        -0.05880
H          4.75070         0.11480        -0.62870
H          3.61387        20.27825         0.04527
H          7.80517         0.96442        -1.53353
H          6.09730        20.24541        -0.07964
H         10.00257         0.60031        -0.48257
H          8.56522        20.20969        -0.07324
H         12.37486         0.50500         0.04093
H         10.97491        20.22443        -0.17298
H         14.83619         0.50087         0.26194
H         13.38683        20.27488        -0.02339
H         17.28092         0.47858         0.61812
H         16.00026        20.36580        -0.06218
H         19.69673         0.46894         0.68269
H         18.50961        20.32577         0.09062
H         22.13969         0.47449         0.50970
H         20.87994        20.24752         0.48741
H         24.53216         0.45648         0.20353
H         23.35951        20.18410         0.68329
H         26.68525         0.51313        -0.75286
H         25.67761        19.98888         1.27240
H         29.47480         0.36925        -1.24546
H         28.44705        19.93167         1.33987
H         31.87491         0.30796        -1.10047
H         30.74502        20.06896         0.96293
H         34.31895         0.26192        -1.24968
H         33.13509        20.02684         1.21579
H         36.79997         0.22384        -1.39508
H         35.37571        19.92326         1.91559
H         39.31233         0.20815        -1.39861
H         38.24603        19.38242         2.37667
H         41.45289         1.43066        -1.13311
H         42.70179         3.49893        -0.58146
H         42.77645         5.80004         0.22844
H         42.76963         7.85510         0.18798
H         42.84150        10.26659         0.14765
H         42.82151        12.25171         0.32516
H         42.90470        14.65556         0.08964
H         42.64407        16.32301         1.17670
H         40.62512        20.08328         1.68191
H         42.56629        18.62314         2.08960
