         210
 CSIRO Nanostructure Databank - Neutral Graphene Oxide Data Set
C         30.29820        31.77481         0.18440
C         30.45443        32.97844        -0.08669
C         30.44704        36.07388        -0.41920
C         30.45064        37.30669        -0.60729
C         30.48627        40.39721        -1.02226
C         30.43038        41.64235        -1.13607
C         32.69332        29.02227         1.02590
C         31.58034        29.56247         0.88190
C         32.78703        31.65529         0.20146
C         31.41989        30.84503         0.18458
C         32.80603        33.13750         0.11080
C         31.59247        33.84872        -0.06342
C         32.81090        35.99460        -0.23974
C         31.58562        35.24649        -0.22456
C         32.81056        37.42268        -0.43806
C         31.59276        38.15337        -0.63728
C         32.82906        40.29537        -0.79679
C         31.59933        39.54900        -0.81811
C         32.82485        41.74592        -0.88071
C         31.58122        42.47054        -1.03688
C         32.81424        44.44579        -0.75064
C         31.71917        43.88157        -0.98479
C         35.49531        27.47117         0.98272
C         35.21372        28.85469         0.86494
C         34.03535        29.52146         0.97461
C         35.27661        31.78890         0.88953
C         33.98925        31.01929         0.83791
C         35.29730        33.18567         0.37813
C         34.04316        33.86498         0.16057
C         35.27836        36.00952        -0.08694
C         34.03982        35.28120        -0.05652
C         35.28230        37.42138        -0.29603
C         34.04339        38.15522        -0.46971
C         35.34220        40.29161        -0.90463
C         34.04124        39.56126        -0.65082
C         35.30870        41.76363        -0.55204
C         34.07262        42.45963        -0.67431
C         35.29174        44.58225        -0.22894
C         34.09651        43.89377        -0.54943
C         35.44475        45.96540         0.02395
C         37.84817        27.42973         0.77295
C         36.54328        26.80981         0.87226
C         37.81199        28.83192         0.62644
C         36.50643        29.60461         0.42630
C         37.81194        31.73169         0.59032
C         36.58141        30.99938         1.09701
C         37.78713        33.12601         0.38733
C         36.51795        33.86503         0.29056
C         37.73431        36.00784         0.03786
C         36.51351        35.29016         0.06673
C         37.73701        37.41892        -0.05697
C         36.51767        38.14636        -0.25293
C         37.74130        40.29299        -0.15695
C         36.54510        39.56517        -0.36702
C         37.75812        41.72927        -0.13541
C         36.51817        42.45075        -0.27660
C         37.74496        44.56083         0.28131
C         36.53135        43.87492        -0.08605
C         37.75477        45.94869         0.60941
C         36.48828        46.53067         0.44523
C         40.31477        24.67701         1.11847
C         39.25807        25.34739         1.04594
C         40.32580        27.41440         0.68374
C         39.07319        26.73337         0.84312
C         40.28565        28.83526         0.49898
C         39.04147        29.54424         0.53708
C         40.24715        31.68484         0.23706
C         39.02135        30.99471         0.45898
C         40.25242        33.11523         0.15426
C         39.02339        33.80645         0.17682
C         40.32141        36.02605         0.24901
C         39.01400        35.26729        -0.02064
C         40.13896        37.47191         0.53500
C         38.95783        38.15335         0.13638
C         40.16956        40.30864         0.26208
C         38.94946        39.58022         0.12588
C         40.21673        41.72908         0.17385
C         38.98341        42.44082         0.09093
C         40.24273        44.55373         0.49608
C         38.99406        43.84837         0.31505
C         40.26498        45.93174         0.81015
C         38.94190        46.55234         1.29335
C         40.18163        48.62922         1.16139
C         39.08872        48.04626         1.13580
C         42.89883        24.69583         1.03286
C         41.59812        25.25481         0.97888
C         42.80697        27.42167         0.54769
C         41.58376        26.69603         0.73406
C         42.78192        28.83348         0.20682
C         41.50714        29.54612         0.22693
C         42.64776        31.67152        -0.39194
C         41.46000        30.94195         0.07410
C         42.73474        33.12070        -0.15578
C         41.52635        33.83733         0.12206
C         42.87841        35.82633         0.44877
C         41.58054        35.22116         0.41028
C         43.06746        37.18119         0.83280
C         41.18665        38.28224         0.99686
C         42.66326        40.22207         0.29001
C         41.34518        39.62216         0.64669
C         42.70838        41.70317         0.26372
C         41.48352        42.41151         0.26207
C         42.71928        44.54007         0.30128
C         41.49020        43.84607         0.33274
C         42.71094        45.97599         0.43669
C         41.48857        46.67063         0.75062
C         42.75138        48.72545         0.80427
C         41.49740        48.13004         0.91285
C         43.93837        25.37634         0.88269
C         45.30346        27.45690         0.51409
C         44.09392        26.76258         0.63591
C         45.29427        28.91710         0.24184
C         43.97596        29.51744        -0.05804
C         45.22637        31.67162        -0.61692
C         43.96305        30.90299        -0.54709
C         45.23611        33.04466        -0.51852
C         43.99031        33.75869        -0.24371
C         45.28060        35.88334        -0.06891
C         44.04920        35.15245         0.01277
C         45.28721        37.29681         0.00232
C         44.09024        37.98469         0.35788
C         45.24730        40.19147        -0.24929
C         43.94261        39.44403         0.08659
C         45.21089        41.66793         0.10691
C         43.97022        42.37992         0.18875
C         45.20050        44.49786        -0.01162
C         43.96726        43.81680         0.17144
C         45.12055        46.00381        -0.37103
C         43.94292        46.68112         0.24956
C         43.77102        48.03181         0.48219
C         47.67592        27.51672         0.09450
C         46.62349        26.95697         0.48015
C         47.86314        28.83988        -0.39128
C         46.58701        29.61996        -0.18697
C         47.73422        31.69531        -1.11387
C         46.43526        30.87464        -1.05288
C         47.74312        33.11638        -0.66166
C         46.50438        33.78303        -0.49894
C         47.73720        35.89802        -0.05978
C         46.51394        35.18088        -0.23942
C         47.70996        37.29475         0.21308
C         46.51990        38.02853         0.10169
C         47.69039        40.18209         0.35962
C         46.49855        39.46460         0.20365
C         47.71107        41.62542         0.19929
C         46.44213        42.35800         0.06190
C         47.71082        44.48616        -0.30475
C         46.41242        43.78550        -0.04643
C         47.54742        45.93594        -0.16526
C         46.47943        46.53114         0.00219
C         50.31326        28.94500        -1.06286
C         48.97092        29.42937        -0.95506
C         50.31399        31.60331        -0.84307
C         49.01084        30.92179        -1.20445
C         50.25482        33.05692        -0.44081
C         48.96635        33.80047        -0.43927
C         50.21798        35.92137         0.04877
C         48.98366        35.18942        -0.13419
C         50.20237        37.28742         0.47362
C         48.89502        37.96358         0.85520
C         50.09291        40.17107         0.89227
C         48.92148        39.47712         0.65461
C         50.15538        41.60393         0.67175
C         48.94661        42.28600         0.25915
C         50.29399        44.32368         0.15133
C         48.99582        43.72706        -0.15862
C         51.43863        29.48054        -1.04223
C         52.76065        31.74990        -0.82037
C         51.63990        30.93615        -1.42015
C         52.60463        32.98007        -0.66045
C         51.51364        33.85619        -0.43668
C         52.57448        36.10979        -0.00308
C         51.47697        35.22555        -0.18091
C         52.55293        37.28212         0.43991
C         51.37575        38.02005         0.72782
C         52.50279        40.22623         1.28611
C         51.29213        39.34727         1.42368
C         52.46814        41.46358         1.21393
C         51.39112        42.31849         0.85031
C         51.25935        43.71859         0.65162
O         48.41356        31.46757        -2.41745
O         43.09479        31.17876        -1.69726
O         34.39264        31.70314         2.07612
O         48.42378        44.00295        -1.46304
O         46.13295        29.74189         1.18033
O         43.01757        39.63117        -1.06109
O         39.84200        35.74338        -1.12577
O         32.25792        30.95065        -0.97261
O         42.18207        37.69861         1.77007
O         50.33993        31.93191         0.55850
O         35.50708        40.27242        -2.37944
H         35.62693        39.33687        -2.65009
O         45.37647        40.18871        -1.70428
H         44.45674        40.17458        -2.06613
O         36.77769        30.80659         2.50837
H         35.92354        31.01739         2.95600
O         44.96095        46.09906        -1.78309
H         45.74404        45.70105        -2.21847
O         51.63451        31.06322        -2.81095
H         52.43366        30.64059        -3.18576
O         46.12945        30.37675        -2.37457
H         46.82029        30.71637        -2.99222
O         51.04734        39.10704         2.82542
H         51.77931        38.55591         3.17553
O         38.83108        46.24437         2.69354
H         37.96328        46.56992         3.01254
O         36.35771        29.85224        -0.98692
H         36.38159        28.99535        -1.46257
O         48.70282        37.73866         2.28859
H         49.43224        38.21559         2.76020
