         732
 CSIRO Nanostructure Databank - Neutral Graphene Oxide Data Set
C         22.90012        24.63512        -1.19167
C         21.73926        25.38160        -1.26806
C         22.82399        27.37525        -0.30604
C         21.72057        26.76641        -1.02485
C         22.85713        28.84131        -0.02679
C         21.82645        29.48478         0.58663
C         22.95480        31.67570         0.56703
C         21.88835        30.89120         0.90404
C         22.98683        33.12173         0.78669
C         21.82290        33.84639         1.11184
C         23.04178        35.96424         1.10256
C         21.84960        35.22774         1.26261
C         23.07038        37.41293         1.22619
C         21.92424        38.15695         1.58454
C         23.11903        40.27079         1.32311
C         21.95690        39.54193         1.65828
C         23.13756        41.72332         1.33899
C         22.14054        42.48992         1.90156
C         23.26636        44.62214         1.39939
C         22.18330        43.91411         1.89979
C         23.34374        46.08795         1.46073
C         22.37649        46.86543         2.13070
C         23.41454        48.90955         1.34212
C         22.42676        48.25857         2.08133
C         25.53580        23.17680        -1.18736
C         25.44942        24.51680        -0.82050
C         24.22050        25.34567        -1.15960
C         25.41044        27.33610        -0.16833
C         24.14890        26.60985        -0.31662
C         25.40658        28.80543        -0.27580
C         24.10918        29.57638        -0.33964
C         25.44280        31.69154         0.22112
C         24.11297        31.10532        -0.22697
C         25.44812        33.09527         0.45208
C         24.21013        33.82887         0.64207
C         25.47938        35.96348         0.67154
C         24.24382        35.24882         0.80485
C         25.48908        37.39568         0.69831
C         24.27737        38.12506         0.96088
C         25.51476        40.26420         0.64412
C         24.29323        39.55033         0.95733
C         25.52448        41.66909         0.52393
C         24.21945        42.41593         0.54824
C         25.52397        44.53739         0.41992
C         24.38412        43.88685         0.85483
C         25.42868        45.97935         0.02550
C         24.38813        46.75313         0.78394
C         25.43435        48.78348        -0.15395
C         24.40198        48.15841         0.67750
C         25.22549        50.02218        -0.77331
C         27.89361        23.03387        -0.57039
C         26.77401        22.47913        -1.14237
C         27.80033        24.39491        -0.02655
C         26.59403        25.18611        -0.31109
C         27.86824        27.31908         0.05709
C         26.61382        26.61073        -0.13792
C         27.85860        28.76163         0.09770
C         26.66453        29.51906        -0.00044
C         27.91384        31.59397         0.40526
C         26.65665        30.93245         0.19012
C         27.91947        33.04774         0.66840
C         26.66789        33.80533         0.54511
C         27.94629        35.91962         0.39270
C         26.70518        35.22518         0.57401
C         27.88810        37.35266         0.08269
C         26.68358        38.11142         0.43836
C         27.95809        40.25085         0.24671
C         26.72217        39.52945         0.42538
C         27.94322        41.66245         0.21739
C         26.72972        42.36816         0.27536
C         27.88691        44.50104        -0.30040
C         26.73895        43.82672         0.10064
C         27.93292        45.95228        -0.42359
C         26.75031        46.69115        -0.09684
C         27.72712        48.70789        -1.09735
C         26.66201        48.08121        -0.38401
C         27.39617        49.84815        -1.83442
C         26.16396        50.50876        -1.68436
C         30.35198        20.20194        -0.14901
C         29.19751        20.87902        -0.31331
C         30.42601        23.04763        -0.10551
C         29.22891        22.33234        -0.70568
C         30.39647        24.43591         0.09470
C         29.10963        25.15207         0.25518
C         30.33203        27.32033         0.30416
C         29.08992        26.62539         0.19177
C         30.32799        28.73525         0.30310
C         29.10076        29.45120         0.22166
C         30.41892        31.54795         0.32923
C         29.10760        30.87326         0.33554
C         30.49381        33.03371         0.39860
C         29.22989        33.81372         0.62307
C         30.41591        35.96440         0.18170
C         29.19119        35.26432         0.33667
C         30.46979        37.37623         0.08237
C         29.20815        38.11712        -0.06556
C         30.43970        40.25492         0.04444
C         29.20758        39.56557         0.12899
C         30.46767        41.67701        -0.04742
C         29.21741        42.47072         0.22188
C         30.40529        44.46905        -0.71227
C         29.10692        43.68892        -0.69528
C         30.33490        45.87150        -1.27052
C         29.10240        46.62314        -0.82172
C         30.37480        48.82900        -1.30043
C         29.08538        48.09859        -0.99383
C         30.47084        50.20054        -1.91778
C         29.41360        50.87584        -2.55416
C         30.70732        52.89203        -2.83102
C         29.52483        52.19163        -3.02661
C         32.91492        18.75963        -0.38435
C         32.83616        20.15835        -0.07694
C         31.64382        20.87453        -0.09933
C         32.86216        23.01765         0.28862
C         31.64482        22.32487         0.02468
C         32.83883        24.45153         0.40566
C         31.60446        25.16029         0.30546
C         32.79734        27.26557         0.66696
C         31.58632        26.58686         0.43175
C         32.79525        28.76605         0.81551
C         31.58760        29.44783         0.24387
C         32.86585        31.49574        -0.57354
C         31.63218        30.78733        -0.03180
C         32.98877        32.97788        -0.23857
C         31.68855        33.71543        -0.17836
C         32.97341        35.86937         0.05898
C         31.65856        35.20407        -0.09410
C         32.97134        37.37998         0.02216
C         31.67779        38.10074        -0.00078
C         32.87612        40.24543        -0.32367
C         31.67278        39.52311        -0.10245
C         32.89329        41.65548        -0.41689
C         31.64722        42.36878        -0.31555
C         32.86853        44.52069        -0.73715
C         31.60687        43.80746        -0.58354
C         32.84336        45.90642        -0.89328
C         31.62634        46.65422        -1.08941
C         32.90369        48.77877        -1.24663
C         31.64855        48.03254        -1.26749
C         32.92167        50.18944        -1.44828
C         31.71347        50.89860        -1.83135
C         33.09165        53.03460        -2.18639
C         31.80001        52.25825        -2.23316
C         32.96384        54.44898        -1.67611
C         35.38676        18.80606        -0.36352
C         34.11498        18.11340        -0.48367
C         35.37187        20.16815        -0.10315
C         34.10834        20.80103         0.41425
C         35.29777        22.97659         0.68200
C         34.10280        22.31067         0.37664
C         35.23560        24.39405         1.07640
C         34.02133        25.16022         0.74387
C         35.27182        27.28964         1.18981
C         34.00878        26.56002         0.87989
C         35.32368        28.79521         0.89959
C         34.09074        29.36464         0.30288
C         35.43188        31.47046        -0.27166
C         34.15769        30.72703        -0.32177
C         35.43125        32.85444        -0.90244
C         34.14927        33.66340        -0.52108
C         35.10602        35.92992        -1.05765
C         34.13164        35.13119        -0.50255
C         35.29501        37.34355        -0.85259
C         34.15869        38.06025        -0.49658
C         35.38878        40.19298        -0.96901
C         34.08083        39.49269        -0.72224
C         35.44435        41.62553        -0.46469
C         34.12585        42.37091        -0.59193
C         35.36674        44.45052        -0.95706
C         34.12901        43.77226        -0.69490
C         35.31914        45.88663        -1.18998
C         34.13009        46.64824        -0.64444
C         35.36133        48.79900        -0.99307
C         34.12388        48.09721        -1.04640
C         35.36867        50.21848        -1.03140
C         34.15365        50.91136        -1.32230
C         35.38337        53.04688        -1.18774
C         34.20743        52.31559        -1.49054
C         35.35989        54.47498        -1.18239
C         34.07420        55.12904        -1.29622
C         37.89636        15.94216        -0.23645
C         36.69694        16.67010        -0.50040
C         37.93396        18.80603        -0.31439
C         36.63564        18.04393        -0.42807
C         37.73649        20.05406         0.56083
C         36.65423        20.97862        -0.05128
C         37.75953        22.98758         0.95797
C         36.56067        22.31073         0.68219
C         37.81276        24.40624         1.13030
C         36.55068        25.14058         1.28158
C         37.76348        27.29297         1.05407
C         36.56004        26.59772         1.14921
C         37.78421        28.73371         0.84670
C         36.59884        29.44725         0.61110
C         37.87158        31.51287         0.19910
C         36.60648        30.82230         0.14929
C         37.90223        32.92409        -0.10188
C         36.75695        33.56407        -0.64214
C         37.95916        35.75690        -0.64344
C         36.95076        34.87402        -1.08572
C         37.87861        37.21972        -0.81315
C         36.61351        37.98026        -1.01230
C         37.87578        40.13382        -1.12173
C         36.62833        39.37837        -0.97617
C         37.89818        41.62472        -1.03553
C         36.65678        42.36204        -0.98014
C         37.86529        44.50703        -1.34167
C         36.60124        43.74849        -1.14234
C         37.88965        45.95565        -1.04752
C         36.65293        46.68422        -1.20838
C         37.82666        48.80076        -0.71026
C         36.61138        48.11039        -0.90681
C         37.81440        50.23008        -0.63753
C         36.59196        50.93140        -0.84254
C         37.79223        53.07286        -0.59386
C         36.59324        52.35328        -0.86527
C         37.78997        54.51280        -0.69378
C         36.57957        55.19979        -0.99348
C         37.81650        57.30133        -1.12331
C         36.62631        56.61578        -1.17184
C         39.99588        14.59527         1.32216
C         40.20748        15.87352         0.77268
C         39.06866        16.57193         0.15952
C         40.32087        18.67641         0.33890
C         39.12202        18.00277         0.15353
C         40.33111        20.09972         0.47996
C         39.05509        20.76123         0.83356
C         40.31999        22.96418         0.85017
C         39.04738        22.24216         1.01532
C         40.32018        24.39347         1.32439
C         39.01396        25.13137         1.11344
C         40.24553        27.27651         1.04802
C         39.01438        26.55967         1.08644
C         40.24996        28.70841         0.99143
C         39.03784        29.42116         0.81693
C         40.29842        31.54043         0.67880
C         39.06036        30.83597         0.57255
C         40.40637        32.96850         0.19142
C         39.08803        33.68147         0.04698
C         40.31618        35.82993         0.16856
C         39.10854        35.08794        -0.11523
C         40.22577        37.29385         0.09131
C         39.04899        37.93165        -0.54209
C         40.40344        40.11586        -0.61158
C         39.16765        39.35427        -0.88223
C         40.44114        41.53871        -1.12849
C         39.11536        42.27488        -1.01833
C         40.29104        44.45049        -0.45313
C         39.16484        43.73969        -1.18016
C         40.32748        45.95064        -0.65686
C         39.07903        46.65495        -0.75620
C         40.29229        48.81350        -0.46393
C         39.07319        48.09025        -0.64311
C         40.26965        50.23535        -0.30657
C         39.02210        50.95046        -0.39883
C         40.17855        53.11558         0.20144
C         38.98306        52.36420        -0.31254
C         40.23159        54.56073        -0.24209
C         39.02104        55.24200        -0.57594
C         40.29463        57.36657        -0.77680
C         39.04531        56.64070        -0.84052
C         40.36496        58.75076        -1.08009
C         42.19465        14.61869         2.28642
C         40.98435        13.96667         2.07592
C         42.42855        15.87908         1.70679
C         41.44881        16.54926         0.95137
C         42.84311        18.75231         0.42985
C         41.61107        17.88953         0.22536
C         42.77454        20.13709         0.28687
C         41.51585        20.83835         0.43456
C         42.74747        23.03217         0.43430
C         41.50085        22.28557         0.59745
C         42.72194        24.46527         0.57572
C         41.53183        25.15802         0.88938
C         42.71657        27.30387         0.86100
C         41.49399        26.56733         0.93787
C         42.69455        28.70982         1.07491
C         41.48787        29.43148         1.08424
C         42.71656        31.64129         1.13789
C         41.48235        30.87992         1.02794
C         42.75200        33.02647         0.98809
C         41.42983        33.76369         0.99230
C         42.75053        35.92129         0.62339
C         41.50450        35.21274         0.55701
C         42.79024        37.32853         0.37984
C         41.51981        38.07871         0.25958
C         42.81914        40.18630        -0.15876
C         41.55462        39.48678        -0.20346
C         42.83490        41.60437        -0.33969
C         41.62329        42.31508        -0.59405
C         42.81627        44.43732        -0.42067
C         41.61069        43.71641        -0.55135
C         42.78662        45.90146        -0.62171
C         41.51862        46.66064        -0.56237
C         42.76310        48.81109        -0.22740
C         41.54080        48.09699        -0.44633
C         42.75240        50.26458        -0.11950
C         41.49038        50.97720        -0.14757
C         42.68641        53.13202         0.12108
C         41.47749        52.37688         0.00862
C         42.66730        54.53644         0.09712
C         41.44726        55.25757        -0.15513
C         42.68479        57.43573        -0.19347
C         41.48395        56.68960        -0.38308
C         42.70959        58.79458        -0.48721
C         41.55687        59.44243        -0.96606
C         45.78094        16.37486         0.96506
C         44.48086        16.97199         1.05812
C         45.15936        18.76882        -0.54716
C         44.14964        18.12039         0.37361
C         45.14024        20.27736        -0.37583
C         43.98759        20.91908         0.01653
C         45.10928        23.14300        -0.27995
C         43.93191        22.37662         0.05754
C         45.08520        24.54431        -0.09810
C         43.92709        25.21135         0.36924
C         45.17998        27.35065         0.56716
C         43.94381        26.62477         0.60312
C         45.21516        28.72748         0.95938
C         43.96726        29.39139         1.33340
C         45.24628        31.61913         1.23474
C         43.97077        30.92877         1.42039
C         45.22188        33.05204         1.08756
C         43.98195        33.75999         0.98130
C         45.22651        35.88762         0.75708
C         43.98875        35.19015         0.80342
C         45.25125        37.32730         0.52439
C         44.00820        38.03411         0.30278
C         45.24483        40.19814         0.12143
C         44.02426        39.47498         0.08322
C         45.26864        41.60505         0.06004
C         44.05474        42.31991        -0.16884
C         45.27696        44.45420        -0.05009
C         44.05527        43.74893        -0.26388
C         45.21242        45.90465         0.14979
C         44.05546        46.67235        -0.37573
C         45.22371        48.79402         0.11126
C         43.99059        48.11619        -0.10117
C         45.19793        50.25405         0.30068
C         43.93931        50.97855         0.04533
C         45.15648        53.12597         0.21087
C         43.96379        52.42190         0.13800
C         45.16560        54.57669         0.61702
C         43.97174        55.30612        -0.02184
C         45.17603        57.43602         0.44642
C         43.83962        56.73798         0.50630
C         46.76751        16.95319         0.21276
C         47.64040        18.89204        -1.02463
C         46.56603        18.20350        -0.45699
C         47.48507        20.31413        -1.45587
C         46.25686        21.03542        -0.97910
C         47.51488        23.18068        -0.93982
C         46.30452        22.49609        -0.76106
C         47.53986        24.65061        -0.83698
C         46.25891        25.35899        -0.44697
C         47.62074        27.34885         0.18381
C         46.36997        26.71304         0.12023
C         47.67361        28.69418         0.78533
C         46.41684        29.44389         0.99443
C         47.70307        31.57627         1.07030
C         46.44260        30.86540         1.18463
C         47.69776        33.02814         1.48336
C         46.44103        33.77015         1.08710
C         47.72368        35.86958         0.99448
C         46.45309        35.16711         0.93462
C         47.73253        37.30333         0.63986
C         46.45844        38.01880         0.49315
C         47.64005        40.20834         0.87718
C         46.56204        39.46338         0.06158
C         47.70932        41.67088         0.52108
C         46.52054        42.33799         0.21248
C         47.73621        44.49384         0.30958
C         46.50951        43.77814         0.15637
C         47.75787        45.93514         0.32386
C         46.49195        46.68885         0.35369
C         47.72257        48.85608        -0.05179
C         46.45041        48.13131         0.09542
C         47.79136        50.32183         0.12241
C         46.50050        51.00665         0.33007
C         47.74472        53.21286         0.02894
C         46.44920        52.45307         0.01264
C         47.69477        54.67712         0.26412
C         46.47061        55.32847         0.35590
C         46.35830        56.77116         0.41070
C         50.07127        19.02289        -1.42226
C         48.94315        18.30647        -1.11161
C         50.05814        20.42959        -1.65389
C         48.73033        21.12746        -1.87510
C         49.92963        23.28331        -1.41030
C         48.74577        22.54874        -1.32257
C         50.00383        24.66732        -1.01474
C         48.82184        25.35169        -0.65964
C         50.08636        27.43045        -0.26031
C         48.83490        26.70972        -0.23459
C         50.13175        28.82139         0.01064
C         48.96589        29.47939         0.63326
C         50.06062        31.73520         0.35425
C         48.86620        30.94657         0.71333
C         50.12964        33.14109         0.79730
C         48.96139        33.77456         1.15994
C         50.22373        35.90987         1.48024
C         48.91911        35.21157         1.20102
C         50.24989        37.37198         1.16827
C         49.01174        38.07018         0.78552
C         50.15737        40.23855         1.05016
C         48.99418        39.53879         0.85357
C         50.16951        41.68133         0.89832
C         48.95408        42.36451         0.61940
C         50.22255        44.46714         0.42857
C         48.97865        43.78695         0.43227
C         50.22251        45.92213         0.23474
C         48.94313        46.63126         0.36452
C         50.11403        48.88842         0.75037
C         48.99257        48.08564         0.12247
C         50.31015        50.26163         0.05940
C         48.98349        51.01746         0.14246
C         50.19393        53.15609         0.46415
C         49.00678        52.45911         0.24977
C         50.14434        54.60051         0.46639
C         48.98110        55.31812         0.36420
C         52.50683        20.54908        -2.02185
C         51.22311        21.16271        -1.85225
C         52.43956        23.37375        -1.85131
C         51.12905        22.65631        -2.09214
C         52.45905        24.74068        -1.46005
C         51.25330        25.38688        -1.04254
C         52.51687        27.49278        -0.77732
C         51.28445        26.76295        -0.68514
C         52.52934        28.90498        -0.51100
C         51.32749        29.55293        -0.17502
C         52.58825        31.75147         0.05946
C         51.30934        31.03081        -0.07712
C         52.60009        33.13549         0.33713
C         51.38760        33.85563         0.65236
C         52.67716        35.95025         0.87761
C         51.44573        35.21515         0.93755
C         52.70682        37.35086         1.11745
C         51.44143        38.04919         1.20100
C         52.71575        40.24906         1.58322
C         51.41950        39.51632         1.38321
C         52.60479        41.73294         1.38774
C         51.40322        42.38713         0.97635
C         52.68676        44.52993         0.81120
C         51.44372        43.80901         0.73910
C         52.83877        45.95188         0.30772
C         51.49728        46.70096         0.28963
C         52.68658        48.83824         1.06288
C         51.42050        48.09319         0.86182
C         52.67752        50.32340         0.99245
C         51.48919        51.01747         0.66360
C         52.64338        53.11200         1.05308
C         51.45040        52.43273         0.71616
C         53.62196        21.28764        -2.32164
C         54.82960        23.49092        -2.44856
C         53.62149        22.72285        -2.22254
C         54.87956        24.84738        -2.03236
C         53.69185        25.47099        -1.49134
C         54.92107        27.68968        -1.54137
C         53.71013        26.84396        -1.17948
C         54.97911        28.97682        -0.77510
C         53.78261        29.62265        -0.46132
C         55.02237        31.70772         0.02942
C         53.79612        31.03088        -0.08300
C         55.05890        33.11738         0.16504
C         53.84163        33.83923         0.34382
C         55.11003        35.95923         0.46345
C         53.88190        35.24664         0.56835
C         55.13540        37.37309         0.65928
C         53.93757        38.08904         1.03698
C         55.25965        40.14289         1.14493
C         53.99587        39.49043         1.30241
C         55.48404        41.49495         1.54606
C         53.66607        42.55568         1.72921
C         55.17346        44.51186         1.21331
C         53.84366        43.88650         1.26207
C         55.20165        45.93807         1.17275
C         53.97183        46.69932         0.99217
C         55.12549        48.82201         1.56934
C         53.95577        48.06925         1.09059
C         55.14660        50.29149         1.44704
C         53.88978        51.02070         1.24312
C         53.83523        52.43189         1.26391
C         56.97204        23.74694        -3.56868
C         55.90985        22.94426        -3.18715
C         57.03650        25.06865        -3.09186
C         56.07631        25.60917        -2.22700
C         57.43763        27.48361        -1.18578
C         56.23049        26.93251        -1.60745
C         57.43415        28.82491        -0.57776
C         56.24698        29.55180        -0.47700
C         57.51717        31.69531        -0.15873
C         56.28165        30.90946         0.18476
C         57.52726        33.09346        -0.10979
C         56.29948        33.83076         0.08312
C         57.53653        35.96271        -0.09021
C         56.31701        35.24141         0.15793
C         57.51405        37.36564        -0.04272
C         56.34862        38.07338         0.39289
C         57.58883        40.24496         0.30740
C         56.39409        39.48619         0.57321
C         57.61671        41.65946         0.47867
C         56.47820        42.33048         1.03443
C         57.61826        44.50845         0.86220
C         56.40291        43.78796         1.10595
C         57.64769        45.92640         1.00433
C         56.43569        46.61987         1.23619
C         57.69485        48.82409         1.38643
C         56.46272        48.05149         1.56645
C         57.61579        50.20338         1.48018
C         56.38044        50.91322         1.52320
C         60.16810        25.18871        -2.64601
C         59.00395        25.95105        -2.48605
C         59.75048        26.71187        -0.36965
C         58.72155        26.73399        -1.34261
C         59.77355        28.86093         0.39586
C         58.65827        29.51203        -0.13707
C         59.97132        31.63066        -0.03641
C         58.72771        30.94885        -0.17065
C         59.99652        33.07460        -0.17386
C         58.77410        33.80398        -0.20896
C         60.01130        35.91233        -0.42777
C         58.77755        35.23113        -0.28389
C         60.02116        37.37346        -0.66692
C         58.69606        38.13932        -0.45579
C         59.97137        40.27989        -0.32699
C         58.76381        39.57990        -0.15914
C         59.99755        41.71291        -0.14839
C         58.81339        42.40118         0.24174
C         60.03737        44.53781         0.32208
C         58.82858        43.81484         0.48771
C         60.08341        45.96984         0.57515
C         58.88593        46.66734         0.89951
C         60.14770        48.76064         0.98115
C         58.91920        48.08763         1.08702
C         61.11924        25.15883        -1.62786
C         60.90486        25.92653        -0.48341
C         60.99301        29.52919         0.63288
C         61.11400        30.87883         0.33473
C         61.21174        33.79644        -0.24562
C         61.21388        35.17425        -0.38988
C         61.24390        38.17513        -0.53832
C         61.19971        39.53262        -0.49085
C         61.17860        42.47593        -0.33929
C         61.19326        43.83592        -0.11162
C         61.29555        46.69106         0.48916
C         61.32401        48.06447         0.69669
O         28.42794        37.69096        -1.24105
O         34.52138        39.91775        -2.09023
O         24.75272        29.17862        -1.59559
O         43.96695        30.08463         2.62403
O         38.74055        44.18838        -2.49018
O         31.47939        34.50364        -1.39392
O         58.07793        25.90080        -3.54568
O         29.84674        48.84983         0.09384
O         45.83445        50.66459         1.58573
O         39.08520        21.31560         2.20473
O         59.67810        27.51095         0.77817
O         30.81625        32.26702         1.59417
O         35.18163        28.29745         2.26621
O         55.72716        48.33321         2.80557
O         28.31726        24.57412         1.34752
O         48.55517        48.42823        -1.23369
O         46.40011        20.57145        -2.42697
O         23.29169        26.55727         0.85214
O         33.18056        36.60889         1.28955
O         38.67192        39.63560        -2.25705
O         48.60781        37.55136        -0.58094
O         59.17902        37.77929        -1.79235
O         47.09571        52.81163        -1.25870
O         35.99269        35.36402        -1.98035
O         51.91180        48.23124         2.22804
O         40.59822        37.91270         1.39219
O         43.66871        46.31446        -1.73824
O         28.20614        50.26654        -2.88951
O         45.61707        46.31494         1.49288
O         50.88258        46.51662        -1.01633
O         50.39896        31.62500        -1.08960
O         43.67484        16.40201         2.03729
O         35.87292        46.33767        -2.43404
O         51.93531        39.81286         2.75098
O         28.62989        33.46015         1.90290
O         34.20338        29.47822        -1.14038
O         48.61354        28.81715         1.90834
O         54.65840        42.01154         2.54719
O         35.74020        24.66783         2.42585
O         46.66792        25.28304        -1.85493
O         38.31448        19.22660        -1.66978
H         38.68352        18.44248        -2.13005
O         35.67717        41.46030         0.98307
H         35.73676        42.35455         1.38201
O         43.43607        56.66821         1.91498
H         43.38152        57.58517         2.25747
O         41.71383        17.55223        -1.21088
H         42.63959        17.71974        -1.50896
O         47.65850        32.99266         2.95648
H         46.89079        32.44031         3.21876
O         24.47285        25.84598        -2.51934
H         24.53665        25.07290        -3.11878
O         40.94584        32.87412        -1.16744
H         40.28985        32.40087        -1.72145
O         35.29782        32.64730        -2.34918
H         35.37703        33.53840        -2.76340
O         50.35625        35.82728         2.95369
H         51.18450        36.29232         3.20099
O         39.98173        53.17938         1.67427
H         40.77783        53.61387         2.05012
O         32.66939        29.07126         2.23313
H         33.46334        28.69751         2.69058
O         37.19421        19.60508         1.82448
H         37.65771        20.12139         2.52795
O         40.69220        41.44046        -2.56990
H         39.97341        40.86929        -2.93750
O         40.96534        33.78126         2.36996
H         41.56434        34.35573         2.89085
O         36.98094        21.41178        -1.39494
H         37.28710        20.62737        -1.91228
O         53.30010        45.84088        -1.06954
H         52.49061        45.84505        -1.63632
O         29.49112        22.34879        -2.15981
H         30.31825        21.84282        -2.31118
O         40.44652        24.28325         2.79360
H         39.77802        23.63136         3.09886
O         34.33041        46.63252         0.81481
H         33.55329        47.06766         1.22630
O         44.23299        55.43809        -1.43976
H         44.40873        54.54469        -1.80399
O         34.14633        20.46985         1.86647
H         35.06609        20.18687         2.08425
O         23.92304        31.61914        -1.58164
H         24.38404        30.98564        -2.18080
O         45.02597        54.54044         2.06501
H         44.54020        55.35362         2.34958
O         23.73636        42.40226        -0.85098
H         22.91378        42.93636        -0.87758
O         30.17080        45.68942        -2.74172
H         31.02823        45.36157        -3.09101
O         29.35726        43.01448         1.57328
H         29.46001        42.26258         2.19330
O         39.89441        44.29244         0.96120
H         40.60242        44.67514         1.52197
O         24.93575        45.92503        -1.37731
H         25.51616        45.30125        -1.86514
O         50.67592        50.05995        -1.32035
H         49.94533        49.54739        -1.74754
O         32.65012        31.50047        -2.01731
H         33.50592        31.77309        -2.43233
O         33.51527        53.16107        -3.59959
H         34.37409        53.63583        -3.60147
O         44.67331        18.49978        -1.91175
H         45.18938        19.10013        -2.50718
O         56.38623        30.63659         1.63671
H         56.42122        31.50288         2.09563
O         47.19804        40.12326         2.27011
H         47.82870        40.63213         2.82246
O         46.93838        39.48582        -1.34032
H         47.64289        38.79816        -1.46017
O         48.64908        21.27479        -3.32927
H         47.68629        21.33884        -3.54479
O         50.89260        22.83399        -3.52959
H         50.06352        22.33103        -3.74227
O         54.65869        28.10444        -2.93810
H         54.65485        27.29122        -3.48787
O         28.89768        43.23290        -2.05820
H         29.06865        44.00656        -2.64692
O         49.62607        49.16062         2.08193
H         50.39341        49.06318         2.69911
H         22.85723        23.54632        -1.33734
H         20.79861        24.88267        -1.54968
H         20.86290        27.38078        -1.33178
H         20.91915        28.92855         0.86132
H         21.02817        31.32452         1.43406
H         20.86418        33.32152         1.22384
H         20.90862        35.74417         1.49450
H         20.98139        37.64367         1.81571
H         21.04040        40.07674         1.94308
H         21.28993        42.00927         2.40618
H         21.33872        44.44766         2.35640
H         21.56805        46.38124         2.69511
H         23.42612        50.00718         1.29129
H         21.66634        48.84798         2.61250
H         24.65794        22.65655        -1.59502
H         24.28003        50.56166        -0.62486
H         26.82539        21.47270        -1.58165
H         25.95571        51.40477        -2.28286
H         30.32042        19.12115         0.05094
H         28.23313        20.35150        -0.28087
H         30.80102        53.92465        -3.19244
H         28.67068        52.64889        -3.54152
H         31.99230        18.20031        -0.59656
H         31.99297        54.96287        -1.72871
H         34.11532        17.04322        -0.73048
H         33.98934        56.18891        -1.01541
H         37.83984        14.84522        -0.26306
H         35.78469        16.07821        -0.66237
H         37.80390        58.38482        -1.29999
H         35.70281        57.16546        -1.39813
H         39.02634        14.09797         1.18815
H         39.47110        59.29041        -1.41881
H         42.98665        14.15839         2.89112
H         40.80302        12.97598         2.51395
H         43.62894        59.38076        -0.35407
H         41.59932        60.51141        -1.21631
H         45.97765        15.45762         1.53511
H         45.19674        58.53562         0.48817
H         47.75980        16.48348         0.20593
H         47.28368        57.36625         0.37476
H         51.03232        18.49083        -1.42555
H         49.06001        17.23428        -0.90837
H         51.08319        55.16124         0.57098
H         49.03543        56.41489         0.41204
H         52.59500        19.45452        -1.98354
H         52.65408        54.20800         1.12115
H         54.56649        20.76357        -2.52277
H         54.74189        53.01392         1.47747
H         57.76089        23.36624        -4.23000
H         55.86444        21.90639        -3.54245
H         58.52982        50.81013         1.41637
H         56.44116        52.01051         1.50072
H         60.30937        24.61468        -3.57025
H         60.19751        49.84680         1.13368
H         62.03063        24.55525        -1.73179
H         61.64298        25.94653         0.32814
H         61.84764        28.96512         1.02865
H         62.08219        31.37676         0.48016
H         62.17108        33.26166        -0.23351
H         62.17638        35.69305        -0.49477
H         62.21830        37.66867        -0.49303
H         62.15225        40.07825        -0.44757
H         62.10305        41.99002        -0.67771
H         62.13303        44.37764        -0.27972
H         62.23699        46.17540         0.26094
H         62.27645        48.60815         0.63007
