         424
 CSIRO Nanostructure Databank - Neutral Graphene Oxide Data Set
C          1.20562         3.45263        -0.46863
C          0.00205         4.14250        -0.42042
C          1.18757         6.20634         0.10933
C         -0.01140         5.51225        -0.14823
C          1.18362         7.66184         0.24287
C         -0.01864         8.38586         0.39946
C          1.16656        10.51348         0.31559
C         -0.02929         9.77147         0.44612
C          1.17274        11.97806         0.29882
C          0.00681        12.69813         0.08893
C          1.14061        14.85410         0.21018
C          0.00895        14.12059        -0.02186
C          1.19258        16.32771         0.02387
C         -0.03729        17.16931         0.05293
C          1.23802        19.15757         0.88566
C         -0.00168        18.47872         0.34038
C          1.27127        20.66642         0.73546
C          0.11583        21.39940         1.09297
C          1.27958        23.50642         0.72203
C          0.11346        22.78149         1.06226
C          1.28768        24.95204         0.68780
C          0.10822        25.70560         0.92072
C          1.29591        27.80470         0.56051
C          0.11143        27.08306         0.85360
C          1.29596        29.24342         0.44455
C          0.10429        29.99916         0.60719
C          1.27159        32.08114         0.10508
C          0.09296        31.36710         0.44305
C          1.25280        33.50538        -0.12331
C          0.03946        34.27911        -0.02286
C          1.21370        36.38391        -0.42674
C          0.02619        35.64860        -0.14146
C          1.26416        37.76755        -0.46048
C          3.62843         3.30681        -0.39521
C          2.43872         4.08181        -0.15750
C          3.62668         6.26061         0.37857
C          2.41959         5.48877         0.17458
C          3.65576         7.67798         0.20178
C          2.40372         8.39446         0.16734
C          3.63559        10.57928         0.02415
C          2.38142         9.81502         0.18772
C          3.65030        12.01712         0.39285
C          2.42458        12.67949         0.47998
C          3.66713        14.88877         0.88038
C          2.36751        14.15033         0.66756
C          3.74298        16.31562         0.51979
C          2.49012        17.02918         0.22929
C          3.69093        19.15501         0.25995
C          2.50540        18.49140         0.41398
C          3.66426        20.61907        -0.09474
C          2.44667        21.35323         0.41846
C          3.69247        23.48669         0.15568
C          2.47302        22.78280         0.41815
C          3.70681        24.91164         0.15894
C          2.49346        25.64622         0.40575
C          3.72343        27.77674         0.09392
C          2.50340        27.07514         0.35440
C          3.72621        29.19632        -0.00522
C          2.50230        29.93144         0.14076
C          3.70822        32.04269        -0.34154
C          2.49470        31.35492        -0.02865
C          3.68213        33.45933        -0.52341
C          2.45538        34.16145        -0.43256
C          3.71499        36.31880        -0.41025
C          2.44314        35.61407        -0.85530
C          3.69452        37.78856        -0.76897
C          2.48171        38.45917        -0.71497
C          6.17664         3.31816        -0.21782
C          4.86539         3.60929         0.18670
C          6.11497         6.24901         0.61749
C          4.83870         5.64992         0.74794
C          6.12154         7.67562         0.44650
C          4.90415         8.35807         0.25011
C          6.18094        10.54342         0.36195
C          4.93985         9.81742         0.02794
C          6.13064        11.98263         0.51025
C          4.91744        12.67782         0.55931
C          6.19404        14.86690         0.57406
C          4.97204        14.11545         1.06373
C          6.19785        16.27214         0.42719
C          4.93895        16.99926         0.39508
C          6.15663        19.13536         0.08915
C          4.94720        18.43341         0.18330
C          6.16947        20.59190         0.09997
C          4.96342        21.32477         0.15922
C          6.15318        23.44927        -0.01022
C          4.95353        22.75951         0.09581
C          6.13900        24.86356        -0.50083
C          4.91311        25.62554        -0.07364
C          6.17419        27.74387        -0.30275
C          4.93892        27.03793        -0.09342
C          6.17241        29.16115        -0.39063
C          4.94514        29.88958        -0.27270
C          6.14703        31.97349        -0.78903
C          4.93967        31.30751        -0.44889
C          6.09357        33.38820        -1.17107
C          4.89238        34.17537        -0.86532
C          6.15761        36.30022        -1.06938
C          4.94139        35.56944        -0.88613
C          6.12806        37.74042        -1.08035
C          4.93823        38.44299        -0.98105
C          8.58008         3.45985        -0.05225
C          7.32415         4.08530         0.18262
C          8.60832         6.19347         0.87831
C          7.30945         5.47101         0.56836
C          8.58139         7.68694         0.60963
C          7.37882         8.38852         0.50172
C          8.60368        10.54675         0.98256
C          7.35624         9.83473         0.52713
C          8.60564        12.00854         0.62171
C          7.39853        12.70361         0.58311
C          8.63918        14.84402         0.37746
C          7.40235        14.14465         0.49472
C          8.64781        16.27000         0.27975
C          7.41376        16.98224         0.24218
C          8.62319        19.12093        -0.03359
C          7.41273        18.42232         0.08894
C          8.63799        20.57278        -0.05483
C          7.41334        21.27583         0.07843
C          8.66858        23.45049        -0.21790
C          7.44348        22.76189         0.31725
C          8.65555        24.87755        -0.34536
C          7.43114        25.60618        -0.30375
C          8.65034        27.73423        -0.49299
C          7.41942        27.01813        -0.37508
C          8.63758        29.15905        -0.60538
C          7.40241        29.87122        -0.58507
C          8.63760        32.00881        -0.86928
C          7.39024        31.28643        -0.79352
C          8.66207        33.42378        -0.96438
C          7.43627        34.16082        -1.27763
C          8.62878        36.31443        -0.93723
C          7.40696        35.62010        -1.12391
C          8.65484        37.75169        -0.96673
C          7.40364        38.49891        -1.36526
C         11.01105         3.45491        -0.31943
C          9.81713         4.13190         0.01329
C         11.05249         6.23253         0.27624
C          9.85497         5.53136         0.34300
C         11.07041         7.68449         0.42828
C          9.83927         8.40004         0.56182
C         11.07198        10.52381         0.45580
C          9.86251         9.81060         0.60985
C         11.07806        11.97057         0.44291
C          9.85569        12.69497         0.49812
C         11.10185        14.81913         0.27770
C          9.86533        14.11838         0.37597
C         11.10705        16.25108         0.21852
C          9.88808        16.97028         0.21988
C         11.08235        19.09856        -0.05727
C          9.88884        18.41287         0.03690
C         11.10462        20.51216        -0.56119
C          9.85928        21.28098        -0.18986
C         11.13224        23.39046        -0.47293
C          9.88583        22.71499        -0.29227
C         11.13632        24.84787        -0.86686
C          9.87215        25.58621        -0.52157
C         11.12857        27.69760        -0.66142
C          9.88479        26.99942        -0.55102
C         11.11039        29.13565        -0.92194
C          9.85863        29.88236        -0.76235
C         11.12607        32.01211        -0.61677
C          9.87542        31.28892        -0.77314
C         11.07311        33.46332        -0.45877
C          9.85425        34.15848        -0.72158
C         11.04930        36.30400        -0.45183
C          9.84417        35.59205        -0.70883
C         11.06193        37.74405        -0.49566
C          9.83251        38.43368        -0.76550
C         13.45469         3.44984        -0.62879
C         12.24751         4.12836        -0.33530
C         13.50951         6.21681        -0.05846
C         12.28108         5.54074        -0.04270
C         13.59732         7.65988         0.37944
C         12.27770         8.39283         0.32576
C         13.54193        10.53028         0.15200
C         12.29112         9.80682         0.29781
C         13.54201        11.95438         0.20258
C         12.31165        12.67222         0.31124
C         13.56938        14.79978         0.10852
C         12.32492        14.09856         0.25955
C         13.56147        16.24900         0.06091
C         12.36022        16.94320         0.15173
C         13.61707        19.12732        -0.03425
C         12.35225        18.43172         0.38775
C         13.60798        20.55347        -0.16859
C         12.38900        21.25117        -0.28126
C         13.59907        23.38741        -0.30920
C         12.37022        22.68160        -0.37316
C         13.55763        24.84358        -0.10955
C         12.34807        25.60804        -0.39288
C         13.61182        27.77796        -0.33981
C         12.36439        27.00783        -0.47489
C         13.63522        29.15596        -0.43297
C         12.43435        29.91651        -0.82671
C         13.63059        32.15946        -0.42792
C         12.34601        31.35477        -0.56261
C         13.37105        33.38053         0.48191
C         12.21559        34.17962        -0.07857
C         13.46930        36.32502         0.07163
C         12.23901        35.59732        -0.11947
C         13.48369        37.75700        -0.06120
C         12.25803        38.44022        -0.30645
C         15.90025         3.44329        -0.93154
C         14.68506         4.12611        -0.64520
C         15.96559         6.24255        -0.38551
C         14.71558         5.54124        -0.36696
C         16.00034         7.66014        -0.29248
C         14.68131         8.38156        -0.41958
C         15.98915        10.53402        -0.09913
C         14.74725         9.84545        -0.07983
C         16.00079        11.93937         0.02768
C         14.77934        12.66136         0.08974
C         16.02297        14.79946        -0.42225
C         14.77249        14.08962         0.02681
C         16.03246        16.27528        -0.11243
C         14.82608        16.96666        -0.01178
C         16.07843        19.11020        -0.06672
C         14.82040        18.41193        -0.03970
C         16.07986        20.55169        -0.13836
C         14.87001        21.25477        -0.21205
C         16.07173        23.40597        -0.33765
C         14.86491        22.70992        -0.27652
C         16.13293        24.90404        -0.44025
C         14.84940        25.59076        -0.03082
C         16.04228        27.71310         0.20783
C         14.85894        27.06834        -0.11413
C         16.06898        29.16854         0.28725
C         14.94828        29.91267        -0.40689
C         15.88018        31.97334         0.60393
C         14.81976        31.34610         0.05324
C         15.90784        33.45276         0.76423
C         14.63582        34.20413         0.67278
C         15.91292        36.32536         0.36061
C         14.67663        35.64164         0.32325
C         15.92405        37.76137         0.26013
C         14.70277        38.44943         0.07123
C         18.35433         3.42392        -1.22042
C         17.13073         4.10973        -0.92370
C         18.41811         6.19179        -0.62699
C         17.18454         5.51670        -0.62206
C         18.50480         7.61164        -0.11973
C         17.21056         8.37751        -0.25775
C         18.48959        10.50523        -0.28115
C         17.23359         9.78880        -0.20518
C         18.52207        11.90661        -0.15611
C         17.29688        12.64980         0.32135
C         18.50138        14.79727        -0.11760
C         17.30186        14.10365        -0.06069
C         18.51495        16.24711        -0.14334
C         17.28301        16.97056        -0.08111
C         18.56132        19.11300         0.32080
C         17.27939        18.39197         0.00718
C         18.54416        20.57244        -0.06935
C         17.35154        21.24216        -0.20647
C         18.60215        23.43402        -0.05161
C         17.37804        22.69870        -0.58693
C         18.57911        24.79491         0.15454
C         17.26045        25.46467         0.44481
C         18.39197        27.64626         0.89783
C         17.27540        26.98413         0.46080
C         18.22967        29.00412         1.54795
C         17.09920        29.79699         0.91537
C         18.41474        31.90201         0.65069
C         17.08435        31.27889         1.18634
C         18.43998        33.42355         0.73722
C         17.17937        34.12837         0.28788
C         18.35529        36.30426         0.61935
C         17.16142        35.62031         0.51091
C         18.37683        37.74464         0.47376
C         17.16468        38.44258         0.31207
C         19.54739         4.09960        -1.25602
C         20.82644         6.22739        -1.09975
C         19.60672         5.50065        -0.97112
C         20.85360         7.61115        -0.99190
C         19.71032         8.36291        -0.63561
C         20.90046        10.53862        -0.77012
C         19.70908         9.78105        -0.56673
C         20.91703        11.90539        -0.64118
C         19.73630        12.63432        -0.30410
C         20.95733        14.80181        -0.24051
C         19.75319        14.06387        -0.17355
C         20.96590        16.18317        -0.25074
C         19.76487        16.94545        -0.18361
C         20.98233        19.11702        -0.26911
C         19.80038        18.37375        -0.12611
C         21.00410        20.50914        -0.17986
C         19.81646        21.27934        -0.08985
C         21.04245        23.41788         0.33998
C         19.83783        22.69560         0.01781
C         21.05573        24.76825         0.50338
C         19.82941        25.56131         0.33600
C         20.86776        27.70566         1.44116
C         19.73334        27.02043         0.77702
C         20.78420        28.99106         1.82459
C         19.54561        29.79418         1.68919
C         20.88875        32.00851         1.20231
C         19.61295        31.26230         1.34372
C         20.86152        33.35190         1.06485
C         19.61435        34.09565         0.89103
C         20.83684        36.28272         0.37089
C         19.64869        35.61101         1.01059
C         20.81565        37.64138         0.17764
C         19.62897        38.39866         0.33183
O          2.76073        14.64019         2.02820
O         15.30612        33.95841         1.99520
O         11.87769        29.51231        -2.12951
O          2.00888        16.67367        -1.17631
O         20.00880        26.68132        -0.63595
O          6.71885        33.67661        -2.45923
O         19.42148        30.82455         2.72605
O          4.77939         4.40167         1.36070
O          4.33318        10.26936        -1.23865
O         14.24482        25.14660         1.21886
O         17.39802        12.64105         1.80250
H         17.44745        11.70172         2.08353
O         11.05348        20.40088        -2.04328
H         10.98341        21.31439        -2.39740
O          7.37210        39.80417        -0.78011
H          7.36186        39.70493         0.19351
O          3.53402        20.61905        -1.56725
H          2.83077        19.97618        -1.80315
O         14.28120         8.29456        -1.82270
H         14.93970         8.78715        -2.35578
O         11.22528        24.82898        -2.36466
H         11.00586        25.73410        -2.67578
O         15.97251        14.73062        -1.90942
H         15.18911        15.24896        -2.19465
O         18.72718         7.49198         1.34131
H         19.54321         6.96099         1.46259
O          1.19034        18.90163         2.33271
H          1.94534        19.37207         2.74520
O         18.64304        19.10633         1.80220
H         19.46657        19.58189         2.04431
O          7.56607        22.88608         1.81070
H          8.37693        22.39620         2.06988
O         15.33298        30.04435        -1.82672
H         15.42250        29.13870        -2.19425
O          6.02128        24.74828        -1.98418
H          5.89513        25.65658        -2.33428
O         16.98436        31.46225         2.61912
H         16.80408        32.41009         2.80048
O         19.79062        35.85094         2.45892
H         19.84147        36.82292         2.58304
O         16.96876        25.07803         1.81494
H         16.02516        25.28001         2.01200
O         17.13892        33.93948        -1.17627
H         17.82122        34.52260        -1.57273
O         12.33761        18.57136         1.86998
H         13.13935        18.11891         2.21094
O          8.74248         6.08977         2.35457
H          7.98230         6.56798         2.75014
O         16.43695        25.28427        -1.81321
H         15.72713        24.93190        -2.39109
O          2.44532        35.61702        -2.31336
H          1.63022        35.16478        -2.61512
O         14.02732         7.66764         1.76964
H         13.33119         7.23283         2.30523
O         18.51319        31.54466        -0.74885
H         17.89827        32.13718        -1.24628
O         12.94584        32.87705         1.76831
H         13.67228        33.07377         2.40668
O         13.96274        32.64700        -1.75047
H         14.31467        31.88169        -2.26046
O          8.56189        10.51247         2.46206
H          7.84341        11.11746         2.74710
O          5.19084        13.99018         2.50612
H          4.29640        14.02905         2.92274
O         17.57806        22.72776        -2.04885
H         17.59256        23.67975        -2.30645
O          3.74703        36.26015         1.04831
H          4.51719        36.78442         1.35158
O         17.80020        28.72216         2.91224
H         17.73670        29.60146         3.35557
H          1.21191         2.38687        -0.73880
H         -0.94000         3.62041        -0.63828
H         -0.96805         6.04927        -0.18653
H         -0.97318         7.85335         0.50471
H         -0.98720        10.29068         0.58509
H         -0.94282        12.17281        -0.07717
H         -0.92533        14.62039        -0.31405
H         -0.98424        16.71030        -0.27138
H         -0.93112        19.06628         0.29061
H         -0.79359        20.86219         1.39515
H         -0.81106        23.31027         1.32792
H         -0.83790        25.19605         1.14460
H         -0.83201        27.61580         1.02940
H         -0.83803        29.49623         0.85987
H         -0.85676        31.90204         0.57326
H         -0.90512        33.76833         0.20663
H         -0.91199        36.19958         0.02575
H          0.34658        38.35017        -0.28674
H          3.55699         2.47178        -1.10828
H          2.45872        39.55166        -0.84517
H          6.34637         2.48756        -0.91929
H          4.95957        39.53808        -1.09381
H          8.58109         2.40470        -0.36527
H          7.45457        38.65991        -2.48115
H         10.97209         2.38358        -0.56631
H          9.83597        39.53259        -0.81927
H         13.42638         2.37013        -0.83812
H         12.26158        39.53869        -0.36845
H         15.86700         2.36791        -1.16242
H         14.71003        39.54723        -0.00033
H         18.31808         2.34662        -1.43846
H         17.18548        39.53397         0.17513
H         20.47838         3.57160        -1.50911
H         21.74025         5.68598        -1.38320
H         21.79436         8.12715        -1.22998
H         21.83930        10.02352        -1.01270
H         21.86488        12.43652        -0.79904
H         21.92174        14.27764        -0.27636
H         21.93589        16.69683        -0.28245
H         21.93349        18.60456        -0.47077
H         21.97332        21.01767        -0.27217
H         21.98333        22.86189         0.45762
H         22.00366        25.28807         0.70089
H         21.81590        27.16166         1.55988
H         21.65059        29.47999         2.29427
H         21.84166        31.48464         1.36542
H         21.80559        33.91417         1.07855
H         21.77443        35.72779         0.22955
H         21.73208        38.15913        -0.14307
H         19.65213        39.48616         0.17599
