         349
 CSIRO Nanostructure Databank - Neutral Graphene Oxide Data Set
C          1.22585         2.11115         0.78424
C          1.19228         3.50359         0.74874
C          2.44142         1.42310         0.85454
C          2.38665         4.25379         0.73273
C          1.17946         6.44969         0.68025
C          1.15298         7.83315         0.53250
C          2.39117         5.72901         0.68870
C          2.33276         8.55652         0.29669
C          1.09305        10.79919         0.40389
C          1.12913        12.02798         0.93254
C          2.30673        10.04309        -0.08188
C          2.36872        12.82041         1.30059
C          1.16813        15.08128         0.89893
C          1.16150        16.40609         0.48581
C          2.33805        14.22604         0.70550
C          2.34818        17.10153         0.16929
C          2.38760        18.51833        -0.05866
C          3.64952         2.13100         0.83406
C          3.60478         3.53613         0.72001
C          4.94944         1.40871         1.15821
C          4.88830         4.26804         0.74762
C          3.60033         6.46798         0.58603
C          3.55956         7.85739         0.30511
C          4.90462         5.76587         0.75764
C          4.79368         8.54569        -0.17907
C          3.60009        10.69717         0.38457
C          3.66768        12.07004         0.97015
C          4.82279        10.05131        -0.20183
C          5.00883        12.82724         1.06267
C          3.68136        14.95154         0.51879
C          3.62039        16.43551         0.51308
C          4.97634        14.30003         0.71811
C          4.89906        17.20421         0.50496
C          3.55799        19.20993        -0.19498
C          4.88065        18.49799        -0.29590
C          6.19263         2.06384         0.57772
C          6.08371         3.51635         0.25790
C          7.34456         1.39144         0.35599
C          7.31039         4.27350        -0.10545
C          6.22386         6.53030         0.59027
C          6.10172         7.83094        -0.16703
C          7.37966         5.73771         0.01262
C          7.38558         8.58262        -0.21548
C          6.13649        10.75843        -0.09417
C          6.18102        12.15668         0.38100
C          7.40022         9.98193        -0.14623
C          7.36420        12.86310         0.26641
C          6.17416        14.99352         0.54320
C          6.24707        16.49968         0.69197
C          7.41082        14.30146         0.34913
C          7.37096        17.15945        -0.07570
C          6.10429        19.29723         0.01641
C          7.33860        18.63341        -0.08406
C          8.52108         2.04266        -0.36457
C          8.61276         3.53280         0.08236
C          9.89395         1.51447        -0.09786
C          9.81618         4.23470        -0.49246
C          8.56318         6.38665        -0.31154
C          8.59817         7.85668        -0.32125
C          9.76687         5.63278        -0.58459
C          9.80808         8.56839        -0.47018
C          8.63147        10.66642        -0.09770
C          8.63191        12.11162         0.17643
C          9.84731         9.97520        -0.30762
C          9.90934        12.87998        -0.04321
C          8.59377        15.01021        -0.11147
C          8.49959        16.45587        -0.39751
C          9.78260        14.32052        -0.34971
C          9.67732        17.19942        -0.95498
C          8.54605        19.33622        -0.15003
C          9.73040        18.73505        -0.84422
C         11.00168         1.99487        -1.00556
C         11.01215         3.50218        -0.71694
C         12.32976         1.34764        -0.71672
C         12.26774         4.21085        -0.59585
C         11.01074         6.34288        -0.92837
C         11.04233         7.85531        -0.84791
C         12.26028         5.60899        -0.68371
C         12.33426         8.56385        -0.71323
C         11.10360        10.71490        -0.44598
C         11.10674        12.09597        -0.41711
C         12.35018         9.97879        -0.65450
C         12.36273        12.84888        -0.59453
C         10.94356        14.96360        -1.00051
C         10.97105        16.45911        -1.12220
C         12.23806        14.23093        -1.14729
C         12.26949        17.14209        -0.84037
C         11.05962        19.25237        -0.35563
C         12.24266        18.56289        -0.47536
C         13.52237         2.04275        -0.61145
C         13.52625         3.49245        -0.55258
C         14.77952         1.35219        -0.57702
C         14.75518         4.17045        -0.54377
C         13.48169         6.38600        -0.45579
C         13.53602         7.84013        -0.71779
C         14.78940         5.63149        -0.36279
C         14.79196         8.50049        -0.84136
C         13.59632        10.63632        -0.78871
C         13.64670        12.11563        -0.76983
C         14.80150         9.92383        -0.96415
C         14.79988        12.75449        -1.53663
C         13.50932        15.02917        -1.27202
C         13.44457        16.43655        -0.79088
C         14.82127        14.28477        -1.39751
C         14.71997        17.09441        -0.43789
C         13.50041        19.23523        -0.25769
C         14.71243        18.57513        -0.32227
C         15.99755         2.03242        -0.63654
C         15.99046         3.47803        -0.67866
C         17.24989         1.33420        -0.56882
C         17.21516         4.20594        -0.72452
C         16.03584         6.37201        -0.63643
C         16.02301         7.74858        -0.86163
C         17.24029         5.60119        -0.66570
C         17.28964         8.44609        -1.32011
C         16.06536        10.65408        -1.05591
C         16.08928        12.07011        -1.12820
C         17.29164         9.93984        -1.04075
C         17.29354        12.78463        -0.97684
C         16.06609        14.95344        -0.98333
C         16.02906        16.36996        -0.59228
C         17.29501        14.25779        -0.90715
C         17.24127        17.25343        -0.95893
C         15.95394        19.22193        -0.06114
C         17.18242        18.56562        -0.16972
C         18.47279         1.99607        -0.66328
C         18.47515         3.44864        -1.07628
C         19.71158         1.32632        -0.56250
C         19.74752         4.19180        -0.74529
C         18.52384         6.33002        -0.37702
C         18.54361         7.76107        -0.84271
C         19.75502         5.55555        -0.76758
C         19.75696         8.43239        -0.78084
C         18.49359        10.63880        -0.93275
C         18.49963        12.05425        -0.80935
C         19.84286         9.95254        -1.04951
C         19.74142        12.75305        -0.54275
C         18.50347        14.97125        -0.77799
C         18.63223        16.49790        -0.88766
C         19.76032        14.22025        -0.67682
C         19.51327        17.00184         0.29153
C         18.37047        19.21947         0.20620
C         19.57601        18.51197         0.37849
C         20.95167         2.01401        -0.53758
C         20.98923         3.44660        -0.58067
C         22.17839         1.31940        -0.32085
C         22.18043         4.12607        -0.26879
C         21.06943         6.28277        -0.91371
C         20.96338         7.74459        -0.58916
C         22.09854         5.61046         0.01057
C         22.26097         8.49917        -0.59337
C         20.80304        10.55608         0.00547
C         20.87040        12.06505        -0.11634
C         22.15670         9.89428        -0.04629
C         22.02156        12.74345         0.40945
C         21.00802        14.94808        -0.11164
C         20.89034        16.36382         0.30951
C         22.08368        14.13393         0.46892
C         21.98732        17.02328         0.79191
C         20.75807        19.17337         0.70130
C         21.99944        18.48544         0.86540
C         23.37340         1.99418        -0.12535
C         23.39399         3.42258        -0.07949
C         24.62174         1.20924         0.20314
C         24.63574         4.13736         0.12713
C         23.42285         6.32977         0.04258
C         23.43429         7.73128        -0.02505
C         24.62508         5.57931         0.24683
C         24.57547         8.46332         0.39374
C         23.27162        10.54153         0.38748
C         23.15854        11.92085         0.89629
C         24.54699         9.86924         0.55615
C         24.40830        12.61062         1.37714
C         23.19087        14.80998         1.11299
C         23.22390        16.29843         1.18637
C         24.22018        14.05015         1.61173
C         24.54989        17.08424         1.11367
C         23.20513        19.17624         0.82441
C         24.46646        18.49493         0.65174
C         25.90312         2.00012         0.04882
C         25.86785         3.45672         0.13365
C         27.07728         1.33480        -0.08573
C         27.11014         4.17617         0.23273
C         25.83021         6.25942         0.53109
C         25.75804         7.69682         0.81394
C         27.09252         5.60636         0.50048
C         27.05396         8.45962         0.94442
C         25.73305        10.63067         0.82767
C         25.75633        12.01500         1.09150
C         26.99575         9.89897         0.58766
C         27.00271        12.77243         0.95669
C         26.07020        15.09898         1.39583
C         25.84586        16.39165         0.89869
C         27.07980        14.23419         0.91659
C         26.88099        16.97768         0.14250
C         25.51971        19.09832         0.02353
C         26.72851        18.35105        -0.47400
C         28.37409         2.05089        -0.31070
C         28.33398         3.49265         0.13222
C         29.58958         1.32613         0.20618
C         29.57466         4.17037         0.30222
C         28.30730         6.33967         0.61118
C         28.32935         7.74403         0.77242
C         29.60842         5.67658         0.21815
C         29.53357         8.49744         0.81217
C         28.28144        10.64730         0.50620
C         28.22463        12.10802         0.68005
C         29.54503         9.91379         0.73946
C         29.46279        12.79412         0.48847
C         28.19471        14.89698         0.31994
C         28.08724        16.27370        -0.02234
C         29.44846        14.19250         0.19705
C         29.26202        17.00243        -0.55682
C         28.01182        19.13111        -0.34782
C         29.23078        18.48861        -0.46077
C         30.72926         2.00768         0.47151
C         30.76835         3.45625         0.42473
C         32.02801         4.15781         0.59764
C         30.82602         6.28442         0.89972
C         30.80521         7.78126         1.08343
C         32.08410         5.49849         0.78048
C         32.02946         8.59420         1.14142
C         30.74642        10.65209         0.75455
C         30.70885        12.07496         0.49550
C         31.98915         9.94053         0.97181
C         31.89112        12.80239         0.23075
C         30.64750        14.86826        -0.13260
C         30.60989        16.29639        -0.54683
C         31.85961        14.15467        -0.08714
C         31.79939        17.14718        -0.42996
C         30.46356        19.19504        -0.49607
C         31.69975        18.52353        -0.46990
O         11.33700        14.30495        -2.28202
O          5.35871        10.66649        -1.38995
O         26.29995         8.10348         2.13481
O         20.31484        10.10234        -2.35039
O         23.50385        11.90971         2.33208
O         14.18275        14.93041        -2.56794
O          2.94372        14.34765        -0.61155
O         30.62722         6.82468         2.23173
O         10.16164        16.82966        -2.29308
O         15.44977        16.53340         0.74339
O         29.82959        16.49443        -1.80007
O         10.95563         7.16546        -2.15736
O         23.85991        16.85726         2.37460
O          3.71625        10.85856         1.83235
O          5.02091         4.98836         2.02552
O         17.01871        17.66732        -2.26871
O         27.58128        10.18311        -0.72741
O          4.14576        17.13755         1.73752
O          5.31639         7.87026        -1.38406
O         14.09719         6.06439         0.85888
O          9.48193        12.49741         1.31959
O         20.83201        14.73594        -1.53858
O          6.38765         3.79575        -1.17207
O         25.21562        14.62832         2.40028
O         13.32936        12.74153         0.51723
O          5.34722        12.80603         2.49207
H          5.20259        11.88381         2.80276
O          5.01054        18.03028        -1.69058
H          5.17271        18.81234        -2.25933
O         10.75499         1.73536        -2.39674
H          9.77900         1.78771        -2.54795
O          6.63255        16.70380         2.08403
H          5.80751        16.62663         2.61837
O          6.62571         6.96072         1.92534
H          6.36117         6.24214         2.54637
O         18.85014        16.51658         1.49486
H         19.29837        16.90450         2.27572
O          9.62820        19.28755        -2.20220
H          9.94783        18.57432        -2.80952
O         21.52319         5.75291         1.35590
H         22.14316         5.34855         1.99953
O          8.21661         1.98213        -1.77031
H          7.40346         2.53095        -1.91998
O         26.50691        18.15522        -1.91513
H         27.30238        17.70971        -2.27956
O         28.55173         2.09520        -1.78509
H         29.43070         2.49830        -1.95320
O         21.50880         6.13766        -2.28525
H         21.99500         6.96947        -2.52919
O          2.33378        13.01215         2.73250
H          2.60655        12.16173         3.14188
O         17.32691         8.31424        -2.78153
H         18.07155         8.86934        -3.10723
O         18.46044         3.41276        -2.54972
H         19.32253         3.05065        -2.84617
O          5.06746         1.37273         2.59441
H          5.05399         2.29503         2.92578
O          2.32114        10.11708        -1.52571
H          1.56308         9.60627        -1.87620
O         18.60621         6.38933         1.09734
H         19.55860         6.31901         1.35230
O         29.79865         5.99030        -1.20646
H         29.03015         5.63010        -1.69829
O          8.82951         3.49232         1.52063
H          9.03966         4.40044         1.82546
O         22.49742         8.64842        -2.04612
H         21.74128         9.25911        -2.36951
O         20.22261        10.23772         1.30489
H         20.81201        10.60341         1.99890
O         24.52021         0.74386         1.56829
H         24.50464         1.52757         2.15521
O         14.59879        12.42386        -2.92873
H         14.29309        13.24172        -3.38909
O         19.32272        16.79673        -2.09779
H         18.61309        17.17905        -2.69378
H          0.28226         1.54830         0.79484
H          0.21571         4.00533         0.74004
H          2.45073         0.32819         0.95024
H          0.22319         5.92237         0.79180
H          0.18233         8.34767         0.54986
H          0.10833        10.34670         0.20413
H          0.17527        12.50754         1.20514
H          0.27638        14.65928         1.38282
H          0.21496        16.96762         0.51035
H          1.42983        19.06040        -0.09406
H          4.89051         0.34533         0.81682
H          3.53477        20.29772        -0.36060
H          7.39116         0.31053         0.56033
H          6.06559        20.39329         0.10302
H         10.15081         1.40109         0.96923
H          8.53120        20.43326        -0.05602
H         12.36729         0.25315        -0.82977
H         11.10185        20.32105        -0.09317
H         14.77411         0.25228        -0.54974
H         13.48216        20.32149        -0.08192
H         17.23399         0.24645        -0.39851
H         15.93113        20.24598         0.34740
H         19.71481         0.23553        -0.41155
H         18.35549        20.30653         0.38910
H         22.16620         0.22002        -0.28069
H         20.75573        20.27347         0.74965
H         24.66907         0.29030        -0.43385
H         23.18338        20.26997         0.69964
H         27.08055         0.23488        -0.13543
H         25.41366        20.14225        -0.31091
H         29.57407         0.22654         0.23536
H         27.97405        20.23034        -0.30592
H         31.64776         1.47260         0.75635
H         32.95298         3.56180         0.59618
H         33.04677         5.99465         0.96992
H         32.98746         8.09212         1.33667
H         32.92832        10.50828         1.02339
H         32.86140        12.28849         0.22445
H         32.80285        14.66200        -0.33136
H         32.78329        16.68248        -0.27636
H         30.44438        20.29393        -0.48227
H         32.62000        19.12371        -0.42301
