         424
 CSIRO Nanostructure Databank - Neutral Graphene Oxide Data Set
C          1.18224         2.06421         0.30530
C          1.16951         3.47098         0.20254
C          2.37779         1.37829         0.40107
C          2.35233         4.20426         0.22770
C          1.16980         6.42268         0.63912
C          1.20972         7.75673         0.84157
C          2.33421         5.70313        -0.00006
C          2.42247         8.53334         0.61858
C          1.21655        10.72033         0.75527
C          1.22712        12.10311         0.74719
C          2.41551         9.97483         0.62373
C          2.42866        12.84039         0.60779
C          1.24802        15.04805         0.78045
C          1.27683        16.43100         0.86012
C          2.43938        14.29301         0.66163
C          2.50861        17.12454         0.87972
C          2.54780        18.57497         0.93673
C          3.60969         2.08685         0.40275
C          3.59324         3.51595         0.33135
C          4.85046         1.39808         0.42079
C          4.83648         4.23157         0.36952
C          3.63962         6.38669         0.34941
C          3.63090         7.83396         0.46916
C          4.81975         5.67690         0.40400
C          4.87225         8.55664         0.39795
C          3.63762        10.69560         0.45369
C          3.64915        12.12736         0.44766
C          4.86778         9.97774         0.33357
C          4.88878        12.83579         0.26514
C          3.68304        14.98609         0.62962
C          3.70570        16.39205         0.78442
C          4.91387        14.26873         0.36318
C          5.01943        17.09490         0.99425
C          3.71590        19.26160         0.80648
C          4.98211        18.57510         0.68314
C          6.06883         2.08587         0.39963
C          6.06188         3.52996         0.43200
C          7.30714         1.37448         0.25582
C          7.31487         4.23953         0.39702
C          6.10753         6.39553         0.73162
C          6.09913         7.84814         0.32861
C          7.34694         5.62654         0.33645
C          7.29354         8.53547         0.11524
C          6.09918        10.68191         0.17234
C          6.10113        12.11510         0.07407
C          7.30785         9.95279         0.05549
C          7.32943        12.80073        -0.19546
C          6.11527        14.98421         0.15127
C          6.18441        16.38372         0.34934
C          7.28569        14.27889        -0.49382
C          7.38005        17.10215         0.15280
C          6.15035        19.24391         0.43886
C          7.40758        18.54061         0.26969
C          8.54089         2.02157         0.19407
C          8.60634         3.47558         0.59651
C          9.74709         1.33363        -0.05542
C          9.81541         4.19299         0.05644
C          8.57840         6.32455         0.10778
C          8.54986         7.78891        -0.26639
C          9.78054         5.63363        -0.04533
C          9.81091         8.50745         0.19881
C          8.56374        10.66061        -0.14039
C          8.53628        12.10749        -0.29125
C          9.75889         9.97151        -0.17022
C          9.79477        12.82283        -0.36456
C          8.59883        14.98533        -0.27907
C          8.61550        16.40189        -0.12262
C          9.81852        14.25366        -0.30509
C          9.82839        17.11585        -0.15690
C          8.60950        19.22677         0.16898
C          9.85336        18.53558        -0.00826
C         10.97777         2.02131        -0.22174
C         10.94179         3.47794        -0.28664
C         12.20438         1.33942        -0.31047
C         12.14113         4.19122        -0.75854
C         11.01536         6.35527        -0.34761
C         11.03122         7.78340        -0.31668
C         12.17906         5.65094        -0.65091
C         12.25286         8.48506        -0.48380
C         10.99681        10.65260        -0.67861
C         11.01859        12.12434        -0.36882
C         12.27265         9.91065        -0.37466
C         12.22818        12.79781        -0.14059
C         11.06747        14.93349        -0.23691
C         11.09412        16.40287        -0.54811
C         12.27014        14.21997        -0.06608
C         12.34671        17.09738        -0.09306
C         11.08257        19.22501        -0.02640
C         12.33375        18.54436        -0.02066
C         13.45498         2.00098        -0.46513
C         13.45188         3.43770        -0.83317
C         14.67814         1.35413        -0.33143
C         14.71537         4.20565        -0.72448
C         13.43367         6.35284        -1.10597
C         13.47560         7.79119        -0.67247
C         14.70741         5.60162        -0.78482
C         14.70549         8.47839        -0.58194
C         13.48645        10.58363        -0.24335
C         13.45530        12.02143         0.10907
C         14.72231         9.89067        -0.30993
C         14.75468        12.75546         0.29759
C         13.53102        14.92860         0.11442
C         13.50304        16.37387         0.14327
C         14.74841        14.22890         0.22176
C         14.74105        17.11323         0.46023
C         13.54773        19.24845         0.06235
C         14.78818        18.56999         0.19556
C         15.93133         2.04867        -0.45486
C         15.93576         3.48492        -0.60048
C         17.14979         1.36413        -0.39777
C         17.17118         4.19264        -0.66171
C         15.93794         6.33359        -0.73265
C         15.92990         7.75163        -0.69363
C         17.17652         5.61205        -0.71925
C         17.19862         8.52902        -0.88485
C         15.97894        10.58841        -0.11495
C         16.02257        12.02261         0.12321
C         17.17495         9.90472        -0.27253
C         17.23106        12.71379         0.18130
C         16.01711        14.87856         0.25286
C         16.05846        16.33743         0.44500
C         17.22997        14.16234         0.22226
C         17.28633        17.05717         0.12252
C         16.01938        19.21356         0.14271
C         17.26980        18.49927         0.05437
C         18.39932         2.04100        -0.53233
C         18.40594         3.46788        -0.67076
C         19.63046         1.35282        -0.49826
C         19.63381         4.15600        -0.86253
C         18.43043         6.32159        -0.73320
C         18.45277         7.73480        -0.61960
C         19.65069         5.60189        -0.88209
C         19.68039         8.40759        -0.54061
C         18.45709        10.43633         0.29942
C         18.46905        11.97997         0.64925
C         19.69842         9.85913        -0.34753
C         19.84214        12.70292         0.42289
C         18.48328        14.87780         0.12743
C         18.47966        16.31438        -0.05840
C         19.70895        14.18321         0.07601
C         19.70002        17.00099        -0.30684
C         18.45078        19.18083        -0.21689
C         19.68075        18.46099        -0.67688
C         20.85792         2.02577        -0.70022
C         20.83839         3.42825        -0.97317
C         22.10724         1.33778        -0.54372
C         22.07983         4.10961        -1.38515
C         20.86644         6.31478        -1.04397
C         20.87292         7.69673        -0.84372
C         22.08309         5.62163        -1.63531
C         22.10968         8.48399        -1.04956
C         20.85016        10.57212        -0.48243
C         20.79562        12.07095        -0.60156
C         22.16053         9.83507        -0.37722
C         22.14963        12.75364        -0.48733
C         20.91290        14.87398        -0.19424
C         20.91739        16.29943        -0.32007
C         22.15840        14.14972        -0.35551
C         22.16959        17.01487        -0.35798
C         20.96118        19.15888        -0.33257
C         22.15516        18.46825        -0.26801
C         23.33927         1.98791        -0.63221
C         23.37681         3.37832        -1.14380
C         24.57264         1.35132        -0.35919
C         24.62930         4.14946        -0.99704
C         23.40895         6.28844        -1.27018
C         23.41141         7.76307        -1.25561
C         24.59663         5.60709        -1.08727
C         24.64637         8.49361        -0.91781
C         23.39698        10.62491        -0.71297
C         23.37718        12.03312        -0.60060
C         24.62252         9.91490        -0.78177
C         24.63027        12.75224        -0.59293
C         23.39807        14.87719        -0.40900
C         23.38254        16.31746        -0.34282
C         24.61958        14.18680        -0.50912
C         24.63559        17.02831        -0.24456
C         23.40697        19.15716        -0.12491
C         24.62213        18.48163        -0.13132
C         25.80654         2.03357        -0.46573
C         25.79705         3.46137        -0.75804
C         27.02208         1.37161        -0.17257
C         27.08078         4.18564        -0.84532
C         25.85069         6.34157        -0.88629
C         25.84830         7.78368        -0.81770
C         27.05738         5.65820        -0.74701
C         27.07509         8.50100        -0.59593
C         25.86240        10.62801        -0.62586
C         25.84593        12.04981        -0.60463
C         27.07334         9.90559        -0.46455
C         27.16510        12.75972        -0.73872
C         25.87123        14.90658        -0.42016
C         25.83641        16.33153        -0.24477
C         27.09932        14.24068        -0.46022
C         27.11597        17.02313         0.13562
C         25.86664        19.18479        -0.06058
C         27.08855        18.51838        -0.03003
C         28.27884         2.02556        -0.13211
C         28.35335         3.44747        -0.53948
C         29.45512         1.39919         0.26636
C         29.55130         4.22995        -0.17871
C         28.29907         6.35794        -0.56867
C         28.30650         7.77037        -0.52083
C         29.52470         5.64054        -0.34026
C         29.55848         8.48638        -0.49778
C         28.31668        10.56164         0.10871
C         28.28801        12.14522         0.13998
C         29.58293         9.90182        -0.35557
C         29.60388        12.79057        -0.27777
C         28.35258        14.96621        -0.42472
C         28.35818        16.35225        -0.38611
C         29.60056        14.20343        -0.42308
C         29.57618        17.17483        -0.76465
C         28.32118        19.19060         0.09607
C         29.57934        18.56887        -0.07636
C         30.69352         2.11715         0.44276
C         30.71207         3.57005         0.25384
C         31.83753         1.45838         0.83060
C         31.91969         4.30935         0.46440
C         30.75353         6.36303        -0.24052
C         30.76550         7.75776        -0.47566
C         31.95366         5.69388         0.15143
C         32.06628         8.44133        -0.75406
C         30.83364        10.61191        -0.34976
C         30.81388        12.07716        -0.31446
C         32.02695         9.92699        -0.52924
C         32.05887        12.78340        -0.36775
C         30.81979        14.91673        -0.42292
C         30.84040        16.34152        -0.59806
C         32.06034        14.21074        -0.34833
C         32.07448        16.93459        -0.75747
C         30.70890        19.32896         0.27891
C         32.04588        19.02263        -0.11979
C         33.06818         2.18469         1.28281
C         33.12378         3.62850         0.85430
C         34.35657         1.46436         1.00618
C         34.33945         4.31149         0.93292
C         33.16911         6.45986         0.31451
C         33.24094         7.78024        -0.06589
C         34.32715         5.82223         1.03851
C         34.48583         8.52692         0.01762
C         33.32878        10.63895        -0.77745
C         33.30024        12.08895        -0.38556
C         34.53577         9.89286        -0.25940
C         34.51366        12.77628        -0.22586
C         33.29935        14.91217        -0.27741
C         33.31675        16.34073        -0.37274
C         34.51835        14.20271        -0.14797
C         34.48991        17.09096        -0.09176
C         33.25659        19.29090         0.47300
C         34.48929        18.54655         0.17730
C         35.55720         2.15109         0.98608
C         35.57180         3.60454         1.03858
C         36.81181         1.45855         0.91621
C         36.81213         4.30650         1.09180
C         35.65362         6.46740         0.72673
C         35.69443         7.80460         0.33781
C         36.83979         5.71644         0.98377
C         37.01109         8.44743        -0.02267
C         35.77137        10.63480        -0.11727
C         35.76532        12.06009        -0.13462
C         36.99137         9.95338         0.06265
C         36.98047        12.77561         0.02179
C         35.74204        14.92993        -0.05217
C         35.71614        16.36164         0.04210
C         36.97420        14.22333         0.01627
C         36.96352        17.05280         0.12989
C         35.67908        19.19493         0.40015
C         36.98209        18.48156         0.60111
C         38.02601         2.13040         0.97938
C         38.06641         3.57328         1.10782
C         39.26761         1.40567         0.92274
C         39.29721         4.23157         1.15566
C         38.10582         6.45557         1.19813
C         38.16371         7.88036         0.77310
C         39.39692         5.70467         1.49939
C         39.47356         8.55547         0.59312
C         38.20728        10.66185         0.21311
C         38.19867        12.07052         0.18875
C         39.47479         9.93725         0.36660
C         39.46226        12.82477         0.50998
C         38.20045        14.94541        -0.01875
C         38.16166        16.37162        -0.05153
C         39.45624        14.26644         0.05421
C         39.39784        17.12266        -0.46920
C         38.22408        19.23350         0.21042
C         39.37755        18.59125        -0.10456
C         40.46491         2.06304         0.93294
C         40.51536         3.49471         1.02487
C         41.73721         4.18345         0.90044
C         40.64168         6.37627         0.91821
C         40.67707         7.79787         0.68291
C         41.78070         5.58078         0.77837
C         41.89782         8.50642         0.47977
C         40.71727        10.64262         0.25625
C         40.72704        12.07009         0.17048
C         41.91490         9.87071         0.28222
C         41.90207        12.82163         0.01262
C         40.68200        14.96438        -0.02122
C         40.69925        16.41871        -0.14744
C         41.89216        14.21564        -0.01391
C         41.84793        17.16822        -0.13298
C         40.64049        19.29730        -0.21439
C         41.81516        18.60513        -0.23044
O         15.39835        16.74924         1.70618
O         28.09708        12.55311         1.46216
O         18.17582        12.11670         2.03536
O         37.87141         7.56875         2.17244
O         32.10933        18.22788        -1.28795
O         12.68754         3.70403        -2.06701
O         27.93901         3.67683        -1.93874
O         22.77658         3.43979        -2.49845
O         22.66707         8.41244        -2.37969
O         13.98494        12.24950         1.46606
O         20.54192        12.62789         1.68092
H         19.79904        12.54261         2.34996
O         13.34762         6.36270        -2.58585
H         13.16457         5.42533        -2.84647
O          7.03174        14.36912        -1.95879
H          6.90115        15.31888        -2.16831
O         19.57956        18.50277        -2.17264
H         18.82858        17.92449        -2.42708
O         11.13757        16.47271        -2.03456
H         10.37474        15.95211        -2.36747
O          9.84537         8.42104         1.65212
H         10.65300         8.87631         1.96984
O          6.16799         6.44199         2.20638
H          6.36928         5.53503         2.52099
O         27.60516        12.57530        -2.12199
H         26.93855        12.98670        -2.71162
O         37.08359        18.37379         2.08160
H         36.28686        17.89259         2.39253
O         39.33260        17.09932        -1.94555
H         40.12926        17.56934        -2.27296
O         33.51276        10.65538        -2.26826
H         32.85919        11.29259        -2.63103
O          8.78283         3.45074         2.06559
H          8.10203         2.84398         2.42741
O         22.29624         9.53612         1.05574
H         22.08276        10.35501         1.55522
O          5.26773        17.01124         2.44767
H          6.12565        17.45557         2.61902
O         10.88976        10.57520        -2.15273
H         10.63021         9.65568        -2.38178
O         32.96044         2.21899         2.77223
H         33.65584         2.83256         3.09448
O         34.09365         6.09408         2.47147
H         34.95534         6.01072         2.93314
O         32.28791         8.24751        -2.20455
H         32.89504         8.97517        -2.49988
O         27.20677        16.83385         1.60606
H         26.32180        17.02662         1.98331
O         21.93228         5.80219        -3.06998
H         22.45624         5.08395        -3.49546
O         20.25579        12.36962        -1.92160
H         20.80042        11.90325        -2.59001
O         28.38918        10.16115         1.50602
H         28.25775        11.03760         2.00738
O         39.58431         5.74732         2.94764
H         39.21773         6.61398         3.24296
O         17.24632         8.80415        -2.34673
H         17.15528         7.94285        -2.80917
O         29.43824        17.47223        -2.19153
H         30.25861        17.94889        -2.45165
O         37.29496         8.09917        -1.41877
H         36.58659         8.49100        -1.97262
O          8.60530         7.83937        -1.72814
H          7.81274         7.38252        -2.08046
O         39.47680        12.91887         1.99526
H         40.30176        13.38917         2.24345
O          2.16389         5.86990        -1.45322
H          2.13671         6.83415        -1.63128
O         18.40793         9.73012         1.58001
H         18.19279        10.46997         2.23601
H          0.23074         1.51446         0.28957
H          0.20392         3.98189         0.08451
H          2.38921         0.28046         0.46021
H          0.23880         5.87202         0.83763
H          0.31679         8.26805         1.22915
H          0.25552        10.20148         0.87039
H          0.27122        12.63061         0.86458
H          0.27360        14.54201         0.79620
H          0.33696        16.99733         0.92997
H          1.59387        19.11596         1.02191
H          4.85075         0.29781         0.41109
H          3.71321        20.36138         0.76570
H          7.26267         0.28509         0.10188
H          6.14811        20.34037         0.33716
H          9.72787         0.23839        -0.16452
H          8.61798        20.32385         0.25152
H         12.20794         0.24706        -0.17454
H         11.07976        20.32231         0.05538
H         14.69702         0.27553        -0.11366
H         13.54074        20.34732         0.00795
H         17.14903         0.27073        -0.27456
H         16.04586        20.30640         0.01638
H         19.63712         0.26710        -0.32131
H         18.43069        20.27778        -0.30926
H         22.08283         0.27444        -0.26131
H         20.95673        20.25624        -0.24954
H         24.57167         0.29370        -0.05529
H         23.39817        20.25505        -0.04932
H         26.98060         0.30486         0.09623
H         25.84993        20.28566        -0.06944
H         29.43757         0.32860         0.52157
H         28.30436        20.27411         0.29970
H         31.81188         0.36649         0.96932
H         30.54547        20.20454         0.92803
H         34.35823         0.36375         0.99582
H         33.30669        20.02997         1.28705
H         36.80377         0.36118         0.83486
H         35.65514        20.25967         0.68067
H         39.23247         0.30891         0.84980
H         38.23765        20.32081         0.39000
H         41.40981         1.50483         0.86220
H         42.66503         3.60560         0.78045
H         42.74240         6.03935         0.50698
H         42.85588         7.97107         0.52091
H         42.88649        10.37213         0.17432
H         42.86704        12.31069        -0.11436
H         42.85241        14.73799        -0.11907
H         42.83156        16.69279        -0.01085
H         40.63884        20.39702        -0.18453
H         42.77221        19.14519        -0.25465
