         317
 CSIRO Nanostructure Databank - Neutral Graphene Oxide Data Set
C         30.53776        31.70342        -0.78013
C         30.54161        32.96269        -0.70093
C         30.26819        36.05262        -0.13814
C         30.35554        37.28762        -0.14962
C         30.43532        40.46750        -0.48685
C         30.37560        41.64632        -0.84372
C         32.68010        28.75831         0.13307
C         31.66203        29.36400        -0.33633
C         32.67902        31.44861         0.28717
C         31.49078        30.75112        -0.39001
C         32.58361        32.91214         0.63568
C         31.22202        33.70177         0.45877
C         32.71660        35.90651         0.16914
C         31.38965        35.19653         0.31843
C         32.76612        37.26302        -0.55139
C         31.54919        38.13426        -0.15200
C         32.84946        40.30194        -0.72276
C         31.59631        39.60657        -0.26813
C         32.82846        41.63779        -1.05790
C         31.47342        42.34167        -1.58772
C         32.77410        44.29238        -1.38935
C         31.62243        43.83548        -1.43273
C         35.43341        27.15844         0.29612
C         35.15766        28.52096         0.64572
C         33.97580        29.20380         0.48426
C         35.07703        31.44520         1.05065
C         34.03802        30.72561         0.17648
C         35.19284        32.92025         0.51740
C         33.88621        33.75214         0.83062
C         35.31334        35.76628        -0.16023
C         33.89451        34.99158        -0.11226
C         35.26518        37.31876        -0.08543
C         34.06850        38.02047        -0.35757
C         35.40700        40.19449        -0.77681
C         34.09223        39.41840        -0.97955
C         35.32643        41.69049        -0.66782
C         34.05102        42.42336        -0.93678
C         35.20997        44.70937        -0.71302
C         34.07862        43.80133        -1.08103
C         35.77006        45.67266        -1.73284
C         37.64785        27.42181        -0.70730
C         36.39217        26.74385        -0.37947
C         37.56284        28.92571        -0.24170
C         36.52628        29.18324         0.92194
C         37.72487        31.45834         1.16976
C         36.43285        30.70467         1.15074
C         37.72646        32.92051         0.66950
C         36.37947        33.66498         1.17027
C         37.64467        35.92125         0.97597
C         36.35845        35.17247         0.82562
C         37.80676        37.23656         0.21343
C         36.49829        37.99597         0.04682
C         37.73331        40.21182         0.35721
C         36.70774        39.41198        -0.46952
C         37.66150        41.70557         0.44028
C         36.44277        42.46154        -0.03324
C         37.87592        44.50939        -0.51517
C         36.48693        43.93941        -0.21794
C         37.83928        46.08616        -0.52458
C         36.79061        46.36141        -1.60695
C         40.30194        24.85181        -1.52879
C         39.22364        25.30970        -1.12024
C         40.27588        27.42656        -0.58163
C         38.94113        26.75678        -1.00582
C         40.15764        28.98331        -0.63003
C         38.92958        29.49158         0.08754
C         40.22557        31.56823         0.72815
C         39.04169        30.66911         1.03105
C         40.21713        32.92421         0.91095
C         38.95311        33.66576         1.18964
C         40.26011        35.93083         1.39509
C         38.92561        35.16177         1.31479
C         40.28290        37.34121         0.74842
C         38.92908        38.04987         0.96865
C         40.16259        40.24819         1.00968
C         39.04059        39.54130         0.67241
C         40.24184        41.74538         0.69883
C         38.88007        42.54486         0.92594
C         40.35502        44.56185         0.05832
C         39.00546        43.91430         0.26952
C         40.28244        46.12370         0.17103
C         39.20189        46.68221        -0.81103
C         40.38251        48.71311        -0.67818
C         39.22021        48.22422        -0.50118
C         42.83538        25.09081        -2.21388
C         41.56058        25.53584        -1.69693
C         42.67408        27.84379        -1.55464
C         41.50232        26.88150        -1.33528
C         42.76796        28.81040        -0.34293
C         41.46123        29.60031        -0.12855
C         42.72701        31.54597         0.78747
C         41.46436        30.84236         0.44341
C         42.73809        33.03372         0.77882
C         41.43320        33.73059         0.61994
C         42.76455        35.95000         0.95835
C         41.46277        35.21172         0.79334
C         42.75409        37.30191         1.20195
C         41.47021        38.05124         1.37399
C         42.74894        40.27799         1.50591
C         41.41795        39.55028         1.48025
C         42.73711        41.77163         1.42213
C         41.37035        42.50107         1.45438
C         42.77941        44.72893         0.83706
C         41.46299        43.99035         0.96453
C         42.81766        46.10764         0.25579
C         41.65331        46.77747        -0.04742
C         42.98660        48.67115        -0.61197
C         41.66141        48.18703        -0.49282
C         43.82855        25.85286        -2.20975
C         45.24988        27.80482        -1.46616
C         44.06385        27.16868        -1.75217
C         45.33940        29.23475        -0.88997
C         43.92966        29.82418        -0.52945
C         45.26888        31.59024         0.65914
C         44.00684        30.75501         0.69179
C         45.23098        32.99245         0.71554
C         43.98942        33.76983         0.34666
C         45.23294        35.91867         0.74133
C         44.02654        35.23920         0.76066
C         45.29746        37.35144         0.94053
C         44.04322        38.04201         1.48951
C         45.33563        40.21335         1.41633
C         43.98553        39.51748         0.99689
C         45.28425        41.79612         1.17056
C         43.92676        42.42346         0.73537
C         45.26217        44.55224         0.62544
C         44.02865        43.94543         0.89238
C         45.31824        45.91451         0.07185
C         44.19142        46.84280         0.40066
C         44.07570        48.07494        -0.46231
C         47.59066        27.92965        -1.20191
C         46.57152        27.28531        -1.63887
C         47.79952        28.80892        -0.17190
C         46.39471        29.36200         0.28103
C         47.75283        31.53859         0.94039
C         46.45410        30.82791         0.69233
C         47.66118        32.93073         0.26196
C         46.51266        33.76181         0.86603
C         47.78454        35.86788         0.45431
C         46.46311        35.17700         0.24952
C         47.82624        37.32195         0.83736
C         46.48270        38.04336         0.75383
C         47.66105        40.18089         0.36549
C         46.52074        39.50776         0.73441
C         47.75805        41.68191         0.55729
C         46.40610        42.30730         0.24061
C         48.20570        44.60963        -1.70733
C         46.46094        43.78088         0.48129
C         47.16917        45.49745        -1.67100
C         46.29479        45.98205        -0.86699
C         50.35937        28.84913         0.16885
C         48.98362        29.26268         0.59082
C         49.98072        31.41611        -0.21144
C         48.96237        30.80187         0.38274
C         50.17617        32.85847         0.03317
C         48.97215        33.68719         0.31773
C         50.22213        35.80007        -0.05862
C         48.98594        35.17214         0.18108
C         50.32686        37.30200         0.20234
C         48.93666        37.99844        -0.01481
C         50.03539        40.23131        -0.59923
C         49.01980        39.50826         0.32289
C         49.98561        41.74450        -0.57909
C         48.82561        42.37647        -0.28836
C         50.04823        44.40830        -0.21698
C         48.64950        43.91573        -0.39602
C         51.51885        29.14885        -0.06333
C         52.65752        31.26065        -0.38316
C         52.82747        29.79260        -0.33237
C         52.49429        32.47628        -0.44894
C         51.43211        33.49593        -0.48372
C         52.60933        35.89925        -0.40285
C         51.45304        35.00094        -0.44490
C         52.66073        37.12793        -0.29462
C         51.48341        38.03860        -0.59762
C         52.42464        40.44816        -0.99387
C         51.60162        39.51366        -0.18726
C         52.40378        41.68569        -1.08832
C         51.20296        42.51923        -1.32732
C         51.03176        43.90881        -0.78499
O         53.88125        29.21325        -0.47821
O         42.74387        32.31713         2.04864
O         37.06276        31.10998         2.41171
O         32.35866        31.88892         1.63496
O         38.16657        27.33699        -2.06347
O         41.91826        44.79276         2.08507
O         51.26383        34.25803        -1.69928
O         36.62492        35.97491         2.01180
O         43.02198        41.10369         2.67388
O         49.86624        33.27485         1.42039
O         41.22102        38.69194         2.65546
O         47.66585        44.37476         0.59152
O         37.17715        40.83490         1.54508
O         36.13737        43.39150         1.06731
O         38.80169        34.28957         2.49522
O         32.07437        35.81153         1.45406
O         31.74682        38.94869         1.02085
O         41.27807        34.62398        -0.53151
O         35.71258        41.04423        -1.94340
O         45.60452        40.04447         2.77332
O         39.55206        46.46654        -2.14674
H         38.75658        46.63974        -2.69948
O         50.92860        42.49250        -2.70846
H         50.25792        43.18473        -2.92282
O         40.57215        41.78157        -0.71794
H         39.96193        41.18618        -1.20371
O         48.14003        41.96446         1.92324
H         47.30275        42.03928         2.45994
O         43.63090        42.22185        -0.67648
H         44.43120        42.46540        -1.20833
O         46.15754        42.05368        -1.17039
H         46.28998        41.08989        -1.32499
O         34.73692        45.49155         0.36395
H         35.48891        46.03223         0.70896
O         39.84695        46.47408         1.48574
H         40.45428        46.03998         2.13174
O         43.93192        33.73524        -1.11005
H         44.70743        34.24444        -1.45280
O         51.93168        39.68067         1.14503
H         51.63021        38.88625         1.65701
O         38.13368        44.08909        -1.89374
H         39.04978        44.39558        -2.12376
O         42.43742        28.58070        -2.77758
H         41.46881        28.81028        -2.81402
O         37.32336        46.55102         0.69487
H         37.69941        47.44694         0.86600
O         36.30450        33.53293         2.57098
H         36.57414        34.40516         2.96065
O         46.74167        34.00921         2.26635
H         46.93535        33.14237         2.70276
O         46.32697        35.07324        -1.21707
H         46.53309        35.95796        -1.59416
O         44.15391        37.97013         2.91676
H         44.77077        38.70568         3.20878
O         35.83132        35.55566        -1.48031
H         35.72964        34.58936        -1.67602
O         38.64914        42.79081         2.31371
H         38.14541        42.02797         2.67999
O         34.01362        39.17255        -2.42904
H         34.30281        40.01007        -2.86733
O         44.06955        29.99948         1.92929
H         43.77666        30.61121         2.64308
O         48.50143        37.76885        -1.36060
H         49.20983        38.07946        -1.97609
O         40.64699        37.29303        -0.63656
H         39.99689        36.72465        -1.11973
O         48.77329        28.98016         1.98076
H         49.43252        29.48084         2.50590
O         31.40958        42.01694        -2.95061
H         30.62793        42.45062        -3.35039
O         45.58172        42.41051         2.44284
H         45.41961        41.66391         3.10631
O         32.62761        36.93736        -1.96170
H         33.02836        37.67566        -2.48678
O         30.44192        33.46894         1.60632
H         29.83614        34.22610         1.74676
O         34.58191        31.45927         2.39409
H         35.32864        31.77790         2.95930
O         47.97117        31.66515         2.36591
H         48.82778        32.16214         2.45287
O         42.99862        27.93373         0.77637
H         43.40235        28.46722         1.51258
O         34.45112        30.73349        -1.19103
H         33.76676        30.28786        -1.73255
O         35.36236        32.92435        -0.88241
H         36.30682        32.64163        -1.10493
O         48.17067        37.36374         2.25335
H         47.93983        38.25832         2.59323
O         39.37509        30.08206         2.32282
H         38.62021        29.49088         2.57000
O         38.22675        36.84156        -1.11342
H         38.05666        37.61098        -1.71368
O         46.04103        28.50213         1.36595
H         46.74507        28.57991         2.05121
O         37.04393        29.66213        -1.36637
H         37.55130        29.38043        -2.16139
O         44.32707        47.21157         1.76537
H         43.58391        47.79845         2.01624
O         49.76707        39.93968        -1.97314
H         50.28081        40.57447        -2.52732
O         37.37841        39.25013        -1.77108
H         36.68316        39.12932        -2.45433
O         43.92136        39.46947        -0.44192
H         43.65562        40.36343        -0.77537
O         47.37777        32.63769        -1.11598
H         47.17616        33.48054        -1.58534
O         49.47758        39.61096         1.68796
H         49.25392        40.52028         2.01716
O         49.00025        44.45359        -2.79707
H         48.75892        45.11115        -3.48108
O         37.83164        32.89154        -0.70983
O         33.90359        34.19134         2.17347
H         33.72451        33.40982         2.74441
O         37.07310        28.55766         2.09246
H         36.52012        28.80459         2.86411
O         43.52861        30.68964        -1.61062
H         43.17666        30.11154        -2.34068
O         45.90572        30.04112        -1.92927
H         45.22051        30.69403        -2.21463
O         40.80591        44.33267        -1.31499
H         40.92615        43.35318        -1.41714
O         51.22177        37.92051        -1.98469
H         51.93953        38.36703        -2.48124
O         38.58310        37.95191         2.35905
H         39.38049        38.20682         2.88698
O         33.59796        34.48192        -1.42524
H         33.39641        35.25906        -2.00563
O         40.98698        42.52648         2.82232
H         41.64580        43.05791         3.31720
O         39.98962        29.35635        -2.04623
H         39.81445        30.32291        -2.08135
O         40.42357        27.05574         0.79750
H         41.35712        27.25608         1.07263
O         50.72258        37.37154         1.58966
H         49.90014        37.26279         2.14420
O         40.55638        36.11478         2.78983
H         40.10059        35.40024         3.29241
