         324
 CSIRO Nanostructure Databank - Neutral Graphene Oxide Data Set
C         30.94669        57.28455         2.42594
C         31.00547        58.66271         2.41439
C         29.79970        59.46673         2.35521
C         30.68227        61.58008         1.29891
C         29.67196        60.74634         1.84803
C         33.05603        52.92645         1.28045
C         33.14399        54.32404         1.50820
C         32.06490        55.04526         1.99381
C         33.31905        57.16415         1.68728
C         32.21317        56.45906         2.50049
C         33.47341        58.60803         2.08766
C         32.31866        59.29990         2.40848
C         33.10268        61.87817         0.73926
C         32.05125        61.41028         1.54692
C         35.40129        48.58609         0.44978
C         35.50252        50.03349         0.82602
C         34.20955        50.78652         0.92407
C         35.33121        52.90375         0.27464
C         34.19125        52.16521         0.89437
C         35.55665        54.30038         0.62916
C         34.49842        54.95754         1.40795
C         35.93415        57.16305         1.39847
C         34.63481        56.41163         1.71052
C         35.73993        58.63506         1.04856
C         34.68463        59.27456         1.71551
C         35.44911        61.50112        -0.06729
C         34.42857        61.37642         0.85441
C         37.81226        44.30258         0.12025
C         37.79412        45.71545         0.07608
C         36.59126        46.44784         0.16425
C         37.84308        48.58676         0.11081
C         36.57656        47.86962         0.22910
C         37.81405        50.03295        -0.06903
C         36.58984        50.71028         0.02383
C         37.70216        52.88070        -0.88087
C         36.48252        52.12102        -0.34759
C         37.82999        54.31435        -0.38566
C         36.72799        55.00672         0.23318
C         37.95239        57.13619        -0.03149
C         36.84857        56.41500         0.46052
C         37.93314        58.58489        -0.07492
C         36.78293        59.32958         0.35949
C         37.79858        61.36387        -0.57954
C         36.68114        60.73162        -0.04370
C         40.28733        40.04519         0.48614
C         40.25088        41.45513         0.26162
C         39.04007        42.16951         0.22184
C         40.27717        44.28955        -0.03875
C         39.02577        43.57898         0.10084
C         40.26830        45.71664        -0.12591
C         39.04877        46.42695        -0.02366
C         40.31887        48.56572        -0.00676
C         39.03008        47.85857         0.00503
C         40.29710        50.07590        -0.24200
C         39.00575        50.75415        -0.41692
C         40.18010        52.82727        -1.05740
C         38.99965        52.12820        -0.72710
C         40.22853        54.26051        -1.07905
C         39.03146        54.98653        -0.64628
C         40.26322        57.11250        -0.89823
C         39.09003        56.41330        -0.52374
C         40.22064        58.52494        -0.98882
C         39.05571        59.24790        -0.65261
C         40.15978        61.40485        -1.20756
C         39.03368        60.69220        -0.81664
C         42.80119        35.78464         0.94438
C         42.78186        37.18645         0.93691
C         41.43719        37.88034         0.92370
C         42.72304        40.05191         0.42345
C         41.48228        39.35493         0.58267
C         42.71270        41.43930         0.21872
C         41.49467        42.16102         0.13597
C         42.75000        44.26977        -0.31104
C         41.49956        43.57695        -0.05356
C         42.73087        45.69134        -0.52437
C         41.51934        46.41538        -0.34245
C         42.73278        48.52902        -0.65375
C         41.54219        47.82811        -0.35399
C         42.69542        49.97448        -0.88259
C         41.49728        50.68187        -0.80604
C         42.67449        52.75996        -1.72265
C         41.39784        52.04240        -1.34086
C         42.65862        54.27028        -1.93707
C         41.42525        54.95957        -1.34556
C         42.67190        57.10687        -1.45056
C         41.47026        56.38937        -1.26514
C         42.69500        58.53076        -1.45038
C         41.39116        59.22543        -1.54841
C         42.67608        61.50516        -1.78943
C         41.36561        60.72899        -1.67720
C         45.24834        32.98510         0.37634
C         44.02735        33.66545         0.53606
C         45.27795        35.70509         1.10516
C         43.99871        35.03130         0.86944
C         45.26639        37.26618         1.06555
C         43.97841        37.93387         0.85041
C         45.19793        39.95434         0.18979
C         43.98883        39.31933         0.50468
C         45.14463        41.36054        -0.27786
C         44.01644        42.19788         0.26733
C         45.20053        44.25228        -0.65212
C         43.96632        43.58358        -0.33000
C         45.20005        45.66618        -0.90644
C         43.94363        46.38473        -0.80846
C         45.12939        48.51872        -1.32374
C         43.91479        47.79375        -0.90090
C         45.18222        49.94900        -0.85217
C         43.90701        50.68665        -1.14718
C         45.12825        52.80420        -1.18690
C         43.92629        52.06686        -1.37902
C         45.12310        54.25019        -1.26160
C         43.95556        54.94650        -1.52949
C         45.15640        57.14701        -1.16756
C         43.98040        56.43254        -1.78815
C         45.13121        58.55824        -1.02416
C         43.88453        59.25848        -1.31834
C         45.02278        61.40217        -1.03556
C         43.89789        60.71128        -1.35716
C         46.47286        33.63845         0.46752
C         47.72609        35.76118         0.72921
C         46.53938        35.02736         0.76953
C         47.73372        37.19286         0.65235
C         46.50725        37.92173         0.65977
C         47.67774        39.92435        -0.13019
C         46.46278        39.26690         0.22357
C         47.66925        41.28388        -0.69080
C         46.38804        42.05621        -0.71758
C         47.66219        44.23257        -0.78714
C         46.42428        43.53938        -0.70917
C         47.66557        45.65776        -0.94857
C         46.42607        46.33585        -1.13857
C         47.71774        48.53012        -1.57704
C         46.41625        47.77044        -1.50708
C         47.70980        50.06611        -1.60893
C         46.41494        50.71462        -1.18381
C         47.56225        52.81533        -0.53852
C         46.36095        52.08714        -1.05982
C         47.58454        54.28116        -0.86240
C         46.39157        54.96514        -1.07088
C         47.50645        57.12816        -0.58976
C         46.34930        56.42539        -0.97798
C         47.44619        58.50758        -0.28111
C         46.27741        59.26220        -0.56213
C         47.51252        61.49078        -0.98016
C         46.25496        60.79710        -0.41783
C         48.93609        37.90250         0.42451
C         50.15628        40.02297         0.03844
C         48.92580        39.27145         0.08043
C         50.18587        41.38701        -0.18711
C         48.96736        42.06733        -0.67195
C         50.11417        44.25497        -0.54553
C         48.91371        43.54459        -0.65865
C         50.11687        45.67346        -0.72957
C         48.92519        46.34997        -0.95116
C         50.19529        48.56743        -0.86521
C         48.98552        47.80152        -1.27626
C         50.13262        49.99302        -0.73593
C         48.91129        50.70844        -0.92935
C         50.06313        52.81183        -0.43944
C         48.86760        52.07989        -0.68945
C         49.99860        54.26365        -0.34261
C         48.83148        54.95806        -0.60218
C         49.95964        57.15236        -0.08085
C         48.84203        56.45244        -0.79881
C         49.92198        58.63525        -0.11254
C         48.68569        59.14912         0.14976
C         50.08198        61.71797        -0.56876
C         48.71906        61.30531        -0.36187
C         51.36198        42.18468        -0.01438
C         52.53904        44.33936         0.02047
C         51.35379        43.55489        -0.22139
C         52.57817        45.69592        -0.18351
C         51.44143        46.39107        -0.89779
C         52.55060        48.58476        -0.19069
C         51.37329        47.87677        -0.60193
C         52.52020        49.98402        -0.10293
C         51.32193        50.71274        -0.39091
C         52.59067        52.90051        -0.53478
C         51.29103        52.14122        -0.36657
C         52.52811        54.35473        -0.12259
C         51.20584        54.90106         0.31396
C         52.46710        57.18587         0.31776
C         51.19505        56.43087         0.31065
C         52.47377        58.64194         0.02195
C         51.17025        59.41969        -0.19124
C         52.44881        61.53334         0.01883
C         51.19858        60.92467        -0.17943
C         53.73824        46.46828         0.17470
C         54.99238        48.53388         0.70254
C         53.75106        47.83946         0.16905
C         55.02345        50.03189         0.50632
C         53.72036        50.72401         0.35639
C         55.07418        52.89718         0.10765
C         53.74535        52.20867         0.18920
C         55.04230        54.38248         0.14878
C         53.70819        54.99435         0.56921
C         54.87634        57.25723         0.60281
C         53.67308        56.51546         0.46023
C         54.87884        58.67405         0.58439
C         53.70590        59.39520         0.30973
C         54.80541        61.56191         0.71951
C         53.67078        60.84076         0.32161
C         56.19475        50.72426         0.62953
C         57.38583        52.87318         1.01631
C         56.28745        52.17473         0.56864
C         57.43379        54.32443         1.11843
C         56.29518        55.09804         0.53883
C         57.19524        57.24795         1.60574
C         56.17255        56.55971         0.76962
C         57.28332        58.70075         1.42614
C         56.17210        59.37819         0.74683
C         57.22730        61.56013         1.58033
C         56.12095        60.94388         0.86362
C         58.48187        54.99850         1.68738
C         59.63114        57.25551         2.23336
C         58.43516        56.45438         1.99482
C         59.58077        58.65097         2.29910
C         58.39928        59.39024         1.86911
C         59.53283        61.50762         2.43914
C         58.38198        60.84515         1.92197
C         60.72334        59.40219         2.71397
C         60.67632        60.79148         2.79863
O         56.54773        60.21786        -0.35632
O         34.74544        60.63011         2.01273
O         48.56102        48.03198        -2.67589
O         45.41042        41.52494        -1.70110
O         32.39049        60.65409         2.69926
O         53.42959        51.65988         1.48695
O         57.33170        56.76620         2.96812
O         41.12611        59.86540        -2.85053
O         40.48529        49.50535         1.10813
O         48.63618        60.40880         0.74716
O         45.56483        48.15423        -2.65607
O         50.19138        56.83410         1.34657
O         51.94524        58.92684        -1.34686
O         34.86166        55.46731         2.80168
O         56.73220        56.05146        -0.49952
O         41.87630        52.09600        -2.75662
O         35.32136        52.52049        -1.16732
O         45.34153        36.51171         2.31366
O         55.17888        53.70139        -1.13110
O         48.45415        41.45997        -1.91295
O         51.74982        46.28562        -2.32809
H         52.59424        46.75776        -2.48517
O         42.53237        54.48224        -3.38236
H         42.03718        53.69949        -3.72911
O         46.12417        61.10675         0.99884
H         46.98634        60.87390         1.41903
O         36.01638        50.05766         2.23193
H         36.80394        49.47079         2.26013
O         32.59158        56.40331         3.90053
H         33.43152        55.88473         3.94525
O         36.68765        57.22909         2.65457
H         36.48905        56.39369         3.14052
O         47.32205        52.78185         0.93303
H         46.67966        53.49334         1.14370
O         53.66521        54.68304         2.00236
H         52.71137        54.54256         2.24532
O         47.84060        50.45850        -3.00817
H         48.29213        49.71175        -3.46975
O         37.52710        52.99397        -2.32637
H         36.55792        53.09690        -2.47918
O         44.33575        42.38876         1.68909
H         43.58634        42.86731         2.10275
O         52.84981        52.79801        -1.97146
H         53.68573        53.29674        -2.14657
O         44.17211        56.60274        -3.23387
H         43.54469        55.97800        -3.67554
O         56.17658        47.91895         0.18458
H         56.20592        48.06747        -0.78249
O         32.92041        57.14738         0.28525
H         32.00629        57.50051         0.22828
O         49.14094        56.66367        -2.21752
H         48.42518        56.24821        -2.74415
O         51.02833        54.49031         1.73262
H         50.40452        55.15147         2.12185
O         40.52614        37.19840         0.04693
H         40.84776        37.30579        -0.87155
O         42.58703        62.71470        -1.02856
H         42.78691        62.51429        -0.09103
O         45.24527        49.78971         0.62581
H         45.40697        50.67732         1.01400
H         29.97040        56.77673         2.45769
H         28.86644        58.93594         2.59931
H         30.37095        62.36022         0.58898
H         28.63902        61.11341         1.73336
H         32.12203        52.40307         1.53422
H         31.10535        54.52680         2.14648
H         32.85190        62.47755        -0.14725
H         34.44117        48.05786         0.54434
H         33.33472        50.24543         1.31632
H         35.34879        62.24788        -0.86917
H         36.86238        43.75466         0.20866
H         35.63899        45.90403         0.25264
H         37.72734        62.42760        -0.85016
H         39.33954        39.50115         0.61093
H         38.08784        41.62826         0.32372
H         40.15134        62.50463        -1.17236
H         41.83876        35.25519         0.87785
H         40.99625        37.78384         1.95575
H         42.80272        61.80964        -2.86201
H         45.22985        31.91536         0.12500
H         43.08089        33.12642         0.38632
H         44.99209        62.50230        -1.08043
H         47.40460        33.08974         0.26838
H         48.67736        35.23045         0.57135
H         47.42028        62.12763        -1.87107
H         49.89754        37.37333         0.49987
H         51.08578        39.50319         0.31590
H         50.28436        62.74016        -0.92574
H         52.29499        41.68962         0.29469
H         53.42193        43.82784         0.43535
H         52.49521        62.63275        -0.01252
H         54.63309        45.93089         0.52529
H         55.01308        48.35227         1.81566
H         54.70880        62.63797         0.92984
H         57.11947        50.15727         0.82130
H         58.25057        52.31163         1.40357
H         57.14972        62.62222         1.85788
H         59.36641        54.43816         2.02965
H         60.59616        56.74496         2.37498
H         59.52744        62.60434         2.51513
H         61.63534        58.86412         3.00942
H         61.56019        61.33794         3.15717
