         314
 CSIRO Nanostructure Databank - Neutral Graphene Oxide Data Set
C         30.50008        56.94629         1.67224
C         30.52973        58.29655         1.97048
C         29.36596        59.04646         2.31473
C         30.63449        61.14198         2.45697
C         29.43779        60.41848         2.55416
C         33.01878        52.73455         0.59793
C         32.96019        54.15810         0.66497
C         31.76197        54.79825         1.00624
C         32.95672        57.01333         0.89635
C         31.65225        56.24930         1.06558
C         33.07374        58.33534         1.57493
C         31.83052        59.01417         2.05858
C         33.06313        61.17110         1.98041
C         31.86053        60.49032         2.16829
C         35.34181        48.55455        -0.54249
C         35.39294        49.94355        -0.28245
C         34.22619        50.55736         0.45377
C         35.42582        52.77979         0.19950
C         34.21933        52.06556         0.39019
C         35.41382        54.19640         0.20960
C         34.19260        54.89174         0.46410
C         35.40936        57.03591         0.49879
C         34.22157        56.29449         0.64019
C         35.40641        58.47462         0.73602
C         34.27071        59.12751         1.26446
C         35.45828        61.24985         1.31135
C         34.26852        60.52380         1.53474
C         37.68594        44.30294        -0.90094
C         37.72633        45.68371        -1.05881
C         36.52661        46.42750        -0.84894
C         37.69116        48.53939        -1.37292
C         36.48796        47.82132        -0.91043
C         37.68975        50.06830        -1.16974
C         36.55395        50.67796        -0.49226
C         37.84440        52.84862        -0.53452
C         36.73948        52.04404         0.12247
C         37.81667        54.27100        -0.45370
C         36.62125        54.94375        -0.02170
C         37.77947        57.11109        -0.24365
C         36.61271        56.36278         0.08648
C         37.70657        58.58141        -0.17861
C         36.56518        59.23271         0.47058
C         37.86253        61.32854         0.74108
C         36.61518        60.62129         0.80081
C         40.08691        40.08583         0.03270
C         40.12578        41.42532        -0.35773
C         38.91123        42.10408        -0.59154
C         40.22285        44.22263        -1.21588
C         38.85887        43.46723        -1.08405
C         40.20476        45.70239        -1.20502
C         38.99191        46.39097        -1.25300
C         40.18228        48.54268        -1.52062
C         38.99703        47.83224        -1.38602
C         40.15032        50.02623        -1.68815
C         38.97531        50.76729        -1.20324
C         40.22673        52.89122        -1.26751
C         39.00517        52.15428        -1.01040
C         40.14007        54.35775        -1.35369
C         38.95582        55.05267        -0.82244
C         40.21324        57.22213        -0.86574
C         38.96475        56.46500        -0.68270
C         40.26152        58.62463        -0.46671
C         39.00898        59.37308        -0.26664
C         40.31555        61.33416         0.52965
C         39.05043        60.71327         0.35839
C         42.85298        35.99740        -0.17610
C         42.64544        37.33002         0.26302
C         41.45534        37.99201         0.04587
C         42.54335        40.14578         0.53443
C         41.24962        39.36803         0.62894
C         42.59954        41.49476         0.11304
C         41.39926        42.15840        -0.39692
C         42.68215        44.24154        -0.85801
C         41.42228        43.49187        -0.76374
C         42.64438        45.70595        -1.00794
C         41.46130        46.41746        -1.19282
C         42.65572        48.59507        -1.39957
C         41.46703        47.87167        -1.40322
C         42.76998        50.06479        -1.81894
C         41.44249        50.80549        -1.79894
C         42.70031        52.98362        -1.40895
C         41.43987        52.25453        -1.47681
C         42.71767        54.39213        -1.46527
C         41.43334        55.13700        -1.55679
C         42.64921        57.31964        -1.36318
C         41.39210        56.57495        -1.22080
C         42.69996        58.72010        -0.80141
C         41.45408        59.30057        -0.27722
C         42.76494        61.33641         0.29673
C         41.50703        60.67122         0.20493
C         45.47618        33.32407        -0.20165
C         44.23853        33.96290        -0.34357
C         45.19965        36.02424         0.59342
C         44.07159        35.31246         0.04493
C         45.07206        37.37851         0.99738
C         43.69478        37.99266         1.14495
C         44.87118        40.23637         1.24376
C         43.71444        39.49334         0.94591
C         44.90078        41.62308         0.99527
C         43.81723        42.20515         0.29048
C         45.08090        44.38615         0.09125
C         43.96324        43.55041        -0.29690
C         45.02011        45.82673        -0.12269
C         43.93659        46.40710        -0.97696
C         45.02856        48.68315        -0.52959
C         43.94020        47.90189        -1.16564
C         44.76363        50.06038        -0.34689
C         43.81433        50.82681        -1.02280
C         45.15463        52.98232        -0.99005
C         43.90726        52.25629        -1.10290
C         45.16901        54.37388        -1.33208
C         43.96229        55.08985        -1.48374
C         45.23884        57.34754        -1.50054
C         43.94283        56.57534        -1.63101
C         45.25508        58.69626        -0.86580
C         43.99557        59.21733        -0.20974
C         45.22157        61.37176         0.14550
C         43.98996        60.70758         0.03573
C         46.57982        34.00781         0.29358
C         47.59030        36.10417         1.14384
C         46.47097        35.37477         0.68179
C         47.48174        37.46545         1.47027
C         46.19906        38.09877         1.39626
C         47.31133        40.31900         2.08321
C         46.07019        39.52982         1.76312
C         47.30349        41.85752         2.13023
C         46.01985        42.47210         1.50889
C         47.41724        44.58105         0.95507
C         46.09623        43.90061         1.03592
C         47.48831        45.91512         0.48989
C         46.23863        46.66203         0.21200
C         47.50790        48.80237        -0.10698
C         46.26452        48.10450        -0.15942
C         47.65528        50.20201        -0.28986
C         46.53592        51.07348        -0.15208
C         47.70396        52.98911        -0.95732
C         46.42950        52.34358        -0.74409
C         47.75168        54.36555        -1.21890
C         46.48263        55.04784        -1.53104
C         47.78187        57.23881        -1.20901
C         46.52567        56.57689        -1.57336
C         47.71710        58.59843        -0.63190
C         46.43258        59.32800        -0.56384
C         47.67390        61.38857         0.13330
C         46.45943        60.70581        -0.06149
C         48.64832        38.23611         1.79332
C         49.80923        40.37486         2.01157
C         48.61443        39.61329         1.97898
C         49.81675        41.76209         1.78640
C         48.57659        42.48514         1.58395
C         49.90377        44.38216         0.66026
C         48.60472        43.80605         1.14207
C         49.94336        45.86697         0.49123
C         48.72165        46.56269         0.26386
C         50.04267        48.60909        -0.56645
C         48.72658        47.95800        -0.25001
C         50.15490        50.09709        -0.60142
C         48.92114        50.85389        -0.56265
C         50.16964        52.99956        -0.64650
C         48.91350        52.24913        -0.74846
C         50.21318        54.43553        -0.96973
C         48.99451        55.09096        -1.23096
C         50.25829        57.27306        -1.18372
C         48.97041        56.54012        -1.23282
C         50.25852        58.73835        -0.80254
C         48.97728        59.32697        -0.31588
C         50.16273        61.41931         0.20371
C         48.95117        60.78006        -0.01779
C         51.05378        42.45825         1.72634
C         52.33816        44.48465         1.22403
C         51.13003        43.78374         1.27248
C         52.42024        45.82070         0.71994
C         51.18679        46.48674         0.34735
C         52.61259        48.48519        -0.37146
C         51.28601        47.80445        -0.31094
C         52.65942        49.93891        -0.74497
C         51.38682        50.71834        -0.75558
C         52.73244        52.94158        -0.84841
C         51.46100        52.18879        -0.61695
C         52.72878        54.42411        -0.67747
C         51.47692        55.15073        -0.88497
C         52.79893        57.31134        -1.05339
C         51.51067        56.53173        -1.00263
C         52.72437        58.70581        -0.45918
C         51.50024        59.38244        -0.33786
C         52.63400        61.38054         0.46296
C         51.43313        60.73093         0.12621
C         53.64981        46.48971         0.68560
C         54.94743        48.57356         0.51269
C         53.78828        47.86648         0.30127
C         54.99268        50.07739         0.43283
C         53.95364        50.65695        -0.52552
C         55.16741        52.84481        -0.05586
C         53.98881        52.15324        -0.64597
C         55.14318        54.33183        -0.08254
C         53.92810        55.09120        -0.50791
C         55.17488        57.22356        -0.31800
C         54.00458        56.54442        -0.56032
C         55.21498        58.71393        -0.34478
C         53.91452        59.38342        -0.13930
C         55.09605        61.38096         0.71342
C         53.87861        60.72614         0.32922
C         56.34999        50.70607         0.21863
C         57.64970        52.82181         0.26403
C         56.44578        52.08240         0.08690
C         57.68546        54.24108         0.31665
C         56.47142        55.00373        -0.11554
C         57.60200        57.19435         0.50093
C         56.45590        56.49077        -0.14274
C         57.71266        58.64122         0.23776
C         56.50129        59.47219        -0.05864
C         57.44630        61.52575         1.23469
C         56.36938        60.83144         0.58491
C         58.84884        54.94368         0.60795
C         60.11878        57.15363         0.96210
C         58.85801        56.40428         0.81248
C         60.13847        58.52898         0.82519
C         58.95528        59.18688         0.30196
C         59.91278        61.45517         1.87816
C         58.80567        61.23824         1.04152
C         61.22670        59.37063         1.28534
C         61.09111        60.65817         1.78472
O         45.48839        50.67915         0.68866
O         56.01047        59.33641        -1.42710
O         44.38568        46.98901        -2.23707
O         45.52351        43.55622         2.36483
O         57.84263        56.79436         1.88344
O         48.33428        58.54644         0.75081
O         52.14184        47.68721        -1.51287
O         40.57340        54.81679        -2.69171
O         46.44796        39.79940         3.16009
O         44.56876        57.18994        -2.79582
O         49.24084        48.03309        -1.64894
O         42.58691        58.50952        -2.22718
O         32.03453        56.95107        -0.21641
O         49.93294        43.86403        -0.84484
O         43.65979        43.59936        -1.74033
O         54.87615        53.60063         1.18048
O         45.17074        46.48223         1.21392
O         38.11471        59.26831        -1.41510
O         50.86504        52.67776         0.62998
O         56.76467        55.72016        -1.36780
O         53.04976        57.58696        -2.53454
O         40.65933        50.49907        -2.99993
O         53.67324        50.06305        -1.81367
O         46.60662        55.78880        -2.79103
O         53.57902        52.57584        -1.98332
O         37.42543        49.42898        -2.47903
O         39.56774        43.65248        -2.36850
O         50.29657        58.35016        -2.20366
O         32.74142        58.32407         3.00782
O         59.10901        60.50689        -0.12511
O         47.32514        42.20900         3.53070
H         46.68433        41.61472         3.98312
O         44.01785        58.58263         1.12264
H         44.76891        58.96852         1.62362
O         37.18604        51.80989         1.52096
H         37.18513        52.67785         1.97812
O         43.23405        50.02396        -3.19025
H         42.43440        49.94844        -3.76080
O         32.98686        50.01504        -0.00934
H         32.90031        50.21761        -0.96329
O         51.16268        44.28004        -1.43105
H         50.94679        45.14251        -1.86704
O         40.93996        39.21271         2.05675
H         41.69955        38.72848         2.47019
O         54.53572        50.52029         1.76616
H         54.84270        51.44170         1.91928
O         43.28222        37.75535         2.53319
H         43.30551        36.78745         2.68948
O         53.27455        56.31766        -3.17489
H         54.25725        56.28823        -3.28241
H         29.55223        56.39300         1.75953
H         28.39292        58.53589         2.35045
H         30.62326        62.23350         2.58806
H         28.51194        60.96237         2.79030
H         32.09976        52.14893         0.74542
H         30.89723        54.18805         1.30706
H         33.08182        62.26380         2.11174
H         34.43008        48.00836        -0.25972
H         34.31402        50.26176         1.53692
H         35.49016        62.32431         1.54534
H         36.75531        43.83005        -0.55410
H         35.60637        45.87619        -0.60486
H         37.89520        62.35569         1.13377
H         39.11154        39.57662         0.06529
H         37.96807        41.61073        -0.31339
H         40.35551        62.36371         0.91508
H         42.03991        35.48324        -0.71062
H         40.65350        37.51284        -0.53643
H         42.76793        62.39978         0.58173
H         45.57826        32.27236        -0.50392
H         43.38376        33.41696        -0.76750
H         45.23273        62.43827         0.41709
H         47.55249        33.50293         0.37902
H         48.56835        35.60585         1.21448
H         47.63177        62.44473         0.44064
H         49.62597        37.73172         1.75851
H         50.77076        39.84254         2.06695
H         50.17031        62.48549         0.47579
H         51.97186        41.93794         2.03837
H         53.25699        43.99798         1.58525
H         52.60803        62.42179         0.81607
H         54.54206        45.96470         1.05952
H         55.80137        48.06734         0.98953
H         55.00651        62.38058         1.16617
H         57.25727        50.10392         0.37729
H         58.57608        52.26744         0.47718
H         57.17019        62.28373         1.98471
H         59.78171        54.38986         0.79397
H         61.01958        56.61272         1.29003
H         59.86336        62.21538         2.67169
H         62.19598        58.87390         1.45049
H         61.97458        61.05668         2.31100
