         490
 CSIRO Nanostructure Databank - Neutral Graphene Oxide Data Set
C         37.78631        50.79391        -0.00369
C         36.67862        51.58144        -0.02110
C         37.90650        53.53758        -0.81860
C         36.73907        52.95894        -0.43145
C         40.20974        49.06697        -0.31833
C         40.29228        50.50936        -0.51806
C         39.12781        51.35928        -0.19833
C         40.40684        53.28386        -1.36661
C         39.19456        52.85386        -0.64040
C         40.45658        54.61323        -1.95672
C         42.66872        48.97798        -0.29693
C         41.31896        48.30443        -0.25177
C         42.63119        50.13323        -1.32215
C         41.46547        51.07350        -1.00252
C         42.75172        52.93802        -2.11426
C         41.49932        52.43490        -1.47548
C         42.92474        54.44766        -2.32384
C         41.60631        55.16976        -2.38444
C         45.07719        46.07608         0.27911
C         43.91800        46.77824         0.19987
C         45.09891        48.60891        -1.12172
C         43.81893        48.02411        -0.58177
C         45.14874        50.08948        -1.30356
C         43.99524        50.80524        -1.38685
C         45.28541        52.96352        -1.70981
C         44.02577        52.19473        -1.89770
C         45.21256        54.28363        -1.32765
C         43.83331        54.91960        -1.15266
C         44.99331        57.07571        -0.70902
C         43.86263        56.41125        -1.00196
C         47.52110        44.41838         0.30546
C         47.48460        45.77610        -0.15951
C         46.31964        46.51879        -0.29936
C         47.63167        48.62626        -0.72126
C         46.40563        47.81044        -1.10137
C         47.65667        50.01637        -0.89887
C         46.51320        50.64449        -1.69542
C         47.57262        52.85591        -0.76551
C         46.62043        52.23147        -1.82052
C         47.74566        54.39025        -1.03137
C         46.38541        55.05868        -0.96635
C         47.41241        57.10784        -0.04268
C         46.27572        56.39082        -0.60167
C         47.45136        58.47539         0.10847
C         49.98351        44.27674         0.31623
C         48.68216        43.70624         0.49196
C         50.04716        45.65620        -0.21742
C         48.77414        46.41903        -0.51190
C         50.06838        48.56520        -0.39332
C         48.83266        47.90240        -0.50309
C         50.08887        50.00208        -0.41064
C         48.88029        50.72268        -0.65152
C         50.05145        52.82244        -0.18256
C         48.90345        52.15116        -0.60614
C         50.10920        54.33582        -0.06923
C         48.73809        54.95596        -0.05820
C         49.77554        57.03995         1.00939
C         48.54625        56.30025         0.44980
C         49.75428        58.51336         0.96133
C         48.60663        59.16299         0.60069
C         52.36747        41.49444         0.98595
C         51.21750        42.20964         0.98904
C         52.45448        44.27684         0.40924
C         51.18049        43.59631         0.56850
C         52.47240        45.70164         0.24987
C         51.28253        46.42560        -0.00056
C         52.52997        48.52525        -0.00542
C         51.29514        47.82834        -0.15951
C         52.61836        50.00864        -0.26886
C         51.29044        50.71486        -0.14736
C         52.44328        52.77518         0.59598
C         51.26021        52.10028         0.05882
C         52.37806        54.15147         0.99011
C         51.01325        54.79880         1.11335
C         52.23579        57.00849         1.13230
C         51.07318        56.31705         1.08277
C         52.21999        58.48163         0.78315
C         51.02749        59.21256         1.41335
C         52.26081        61.28510         0.76599
C         51.09283        60.68583         1.07918
C         55.03796        39.99479         1.18006
C         54.95436        41.35241         0.60312
C         53.63435        42.09698         0.52343
C         54.92413        44.26332         0.35966
C         53.67162        43.57541         0.45580
C         54.93194        45.67200         0.26105
C         53.71765        46.39048         0.25460
C         54.95970        48.53625         0.41722
C         53.70910        47.82061         0.20509
C         54.89349        49.94197         0.75821
C         53.74257        50.66983         0.50316
C         54.66008        52.70333         1.71886
C         53.62151        52.04833         0.83886
C         54.79880        54.18337         1.40066
C         53.56437        54.86507         1.24882
C         54.76719        57.09915         1.27629
C         53.50402        56.33448         1.59983
C         54.75170        58.46704         1.18671
C         53.52187        59.20667         1.02139
C         54.79409        61.27654         0.55771
C         53.53298        60.57249         0.79583
C         54.82082        62.57325        -0.01113
C         57.47748        40.03145         1.01103
C         56.22976        39.39176         1.39116
C         57.43439        41.44563         0.69838
C         56.21103        42.14296         0.59281
C         57.42038        44.29734         0.50172
C         56.18302        43.55034         0.43901
C         57.44374        45.70638         0.41618
C         56.20149        46.42131        -0.05054
C         57.43114        48.65302         0.22079
C         56.15631        47.86587         0.36377
C         57.39244        49.98808         0.94941
C         56.06709        50.45669         1.56201
C         57.27428        52.75907         1.86404
C         56.00119        51.97129         1.82293
C         57.27327        54.22600         1.62072
C         56.04146        54.87618         1.46003
C         57.26927        57.06821         1.62350
C         56.05834        56.34288         1.07594
C         57.26649        58.56893         1.66349
C         55.94922        59.33159         1.56729
C         57.25620        61.28560         0.61436
C         56.01640        60.62997         0.81493
C         57.25690        62.61967         0.11258
C         56.02095        63.22359        -0.22267
C         60.01937        37.29281         1.17554
C         58.88359        37.99589         1.41769
C         59.83193        40.01708         0.21996
C         58.68442        39.33796         0.93541
C         59.89613        41.48041         0.53798
C         58.67097        42.17349         0.62444
C         59.89349        44.30361         0.69382
C         58.65810        43.59554         0.63081
C         59.89364        45.72726         0.73332
C         58.65853        46.43257         0.57749
C         59.88489        48.55492         0.73019
C         58.68099        47.86303         0.56184
C         59.85210        50.06470         0.57312
C         58.55641        50.65505         1.12457
C         59.84346        52.79183         1.73840
C         58.57366        52.00846         1.74813
C         59.80394        54.26342         1.67424
C         58.54636        54.94819         1.60246
C         59.79026        57.13500         1.91917
C         58.55139        56.35184         1.55028
C         59.75702        58.57733         1.44633
C         58.54371        59.26978         1.36199
C         59.73314        61.32867         0.71279
C         58.51093        60.62167         0.89906
C         59.70857        62.70879         0.37035
C         58.50376        63.35197         0.03358
C         59.72422        65.42891        -0.47476
C         58.53605        64.71555        -0.38614
C         62.44603        35.71796         0.39247
C         62.41486        37.12318         0.35760
C         61.07752        37.81024         0.21834
C         62.35171        40.00630         0.36721
C         61.14958        39.30812         0.33613
C         62.36583        41.45047         0.47298
C         61.12864        42.16908         0.56249
C         62.36265        44.30717         0.77728
C         61.12760        43.59294         0.68848
C         62.35050        45.70822         0.97028
C         61.12809        46.43171         0.89601
C         62.36278        48.59271         1.00514
C         61.11205        47.86531         0.91158
C         62.34853        50.00735         1.04815
C         61.10440        50.75422         1.06138
C         62.34304        52.81898         1.78813
C         61.09392        52.08150         1.39243
C         62.28648        54.29080         1.45035
C         61.04397        54.98157         1.55375
C         62.25022        57.12670         1.37669
C         61.04822        56.40550         1.53346
C         62.23695        58.56267         1.28007
C         60.99066        59.26301         1.21532
C         62.23393        61.33597         0.71964
C         60.99369        60.65126         0.89751
C         62.22112        62.72357         0.11784
C         60.98023        63.50670         0.54733
C         62.18381        65.59646        -0.14149
C         60.95471        64.87318        -0.09320
C         62.20761        66.98302        -0.47240
C         64.87479        35.71110         0.24051
C         63.64604        35.02330         0.37388
C         64.85971        37.13058         0.17294
C         63.62229        37.84880         0.28418
C         64.81481        40.02634         0.22721
C         63.61100        39.29673         0.28502
C         64.82367        41.44545         0.29295
C         63.59375        42.16569         0.47169
C         64.83795        44.30733         0.57397
C         63.59777        43.58881         0.62101
C         64.88620        45.72929         0.86887
C         63.62553        46.40880         1.37130
C         64.81776        48.59834         1.13726
C         63.60240        47.89515         1.08986
C         64.80646        50.00593         1.15869
C         63.57668        50.72187         1.15343
C         64.76952        52.87366         1.10086
C         63.57791        52.13502         1.29916
C         64.74380        54.31869         1.11376
C         63.50067        55.00444         1.27696
C         64.71978        57.16894         1.24200
C         63.49126        56.43732         1.25850
C         64.70159        58.58247         1.29050
C         63.46500        59.27463         1.20357
C         64.71211        61.43256         0.90815
C         63.45511        60.69377         0.95182
C         64.65547        62.87061         0.72063
C         63.47911        63.51991         0.40967
C         64.60407        65.72738         0.26505
C         63.41939        64.95492         0.20284
C         64.61700        67.09454        -0.12536
C         63.37748        67.70215        -0.47832
C         67.41489        32.94567         0.27557
C         66.22155        33.62433         0.40246
C         67.31939        35.71823        -0.23360
C         66.13912        35.01485         0.15137
C         67.25031        37.14420        -0.43091
C         66.07546        37.82833        -0.11155
C         67.31609        40.09295        -0.32753
C         66.09052        39.29751         0.08351
C         67.19763        41.55304        -0.39337
C         66.04515        42.18966         0.08883
C         67.30636        44.32347         0.38753
C         66.02137        43.61763         0.28865
C         67.33453        45.78376         0.56157
C         66.08100        46.42633         0.87682
C         67.35265        48.59742         0.89221
C         66.12297        47.85194         1.37622
C         67.38513        50.03627         1.07700
C         66.04976        50.77403         1.24790
C         67.15034        52.91194         0.35692
C         65.98583        52.19476         0.94786
C         67.19481        54.36170         0.75595
C         65.97352        55.04495         1.01377
C         67.20462        57.18892         1.10652
C         65.96656        56.46358         1.14670
C         67.22010        58.61106         1.20435
C         65.96617        59.35241         1.59106
C         67.19755        61.50669         1.06113
C         65.93839        60.79368         1.12571
C         67.18607        62.95007         0.92126
C         65.86166        63.64901         1.19413
C         67.14000        65.82671         0.44103
C         65.84339        65.11805         0.77875
C         67.08124        67.11030        -0.27064
C         65.85949        67.79709        -0.34018
C         67.00074        69.78144        -1.20775
C         65.88436        69.20042        -0.71348
C         69.99189        31.55925         0.21691
C         69.84881        32.86611        -0.29152
C         68.59687        33.61323        -0.13272
C         69.75493        35.67583        -0.90474
C         68.54201        34.99636        -0.39046
C         69.63318        37.12378        -1.38897
C         68.34935        37.87346        -1.13820
C         69.54975        40.21279        -1.53947
C         68.36783        39.39371        -1.14683
C         69.70617        41.57135        -0.88613
C         68.35538        42.35244        -0.93080
C         69.71949        44.46547        -0.45706
C         68.53647        43.64144        -0.15795
C         69.74945        45.81537        -0.03668
C         68.53843        46.47734         0.43488
C         69.76668        48.66352         0.42462
C         68.54680        47.93342         0.57200
C         69.78181        50.08488         0.34134
C         68.54334        50.81589         0.57907
C         69.61997        52.97270         0.00343
C         68.46265        52.17986         0.45540
C         69.64481        54.40934         0.31140
C         68.41531        55.07195         0.69921
C         69.73190        57.15596         1.12995
C         68.41389        56.47017         0.93729
C         69.66323        58.65555         1.05300
C         68.44815        59.33663         1.09469
C         69.67321        61.50498         1.01360
C         68.42026        60.79972         1.06203
C         69.65435        62.97926         1.02678
C         68.36880        63.67282         0.80614
C         69.56951        65.73991         0.06156
C         68.40796        65.07689         0.45939
C         69.51123        67.02059        -0.59065
C         68.29140        67.66776        -0.78860
C         69.42307        69.55344        -2.15699
C         68.19636        68.96469        -1.50856
C         69.49361        71.01900        -2.37054
C         72.22451        31.40485        -0.69541
C         71.16463        30.83636         0.02099
C         72.10912        32.69687        -1.19620
C         70.93210        33.44927        -0.99884
C         71.69938        35.35358        -2.39624
C         70.82384        34.82468        -1.47630
C         71.52259        36.65916        -2.94272
C         70.52362        37.48823        -2.50581
C         71.44791        40.68591        -3.03417
C         70.40814        39.84563        -2.56345
C         71.60074        41.97594        -2.51362
C         70.76515        42.46198        -1.51282
C         71.99224        44.63496        -1.28514
C         70.83639        43.85370        -1.08815
C         72.05387        45.94545        -0.80992
C         70.96167        46.54441        -0.17447
C         72.26031        48.70865         0.09782
C         71.06517        47.89457         0.50667
C         72.20216        50.05215        -0.08435
C         70.97080        50.78479         0.02312
C         72.14884        53.07320        -0.23839
C         70.93720        52.23423        -0.25377
C         72.06835        54.42625        -0.19026
C         70.83485        55.13989         0.09767
C         71.85928        57.39998        -0.20882
C         70.83875        56.54904         0.28820
C         71.90260        58.73940         0.06993
C         70.99638        59.35239         1.10765
C         72.12882        61.57092         0.81997
C         70.90136        60.84965         0.98392
C         72.16788        62.91983         0.62645
C         70.96063        63.72848         0.81183
C         71.87293        65.44748        -0.81211
C         70.95734        65.18197         0.35598
C         71.82768        66.63511        -1.42040
C         70.82467        67.68878        -0.99612
C         71.95902        69.63634        -2.02554
C         70.73426        68.75389        -2.13417
C         71.91770        70.97825        -2.10874
C         70.66637        71.68359        -2.32332
O         59.32101        52.15340         2.99549
O         66.91691        50.44864         2.43086
O         54.20544        41.42405        -0.66641
O         70.27698        38.63244        -3.26208
O         48.78026        56.45663         1.92463
O         70.39561        63.58507         2.16287
O         44.13810        47.91846        -1.99222
O         49.52389        45.78842        -1.59441
O         68.24920        43.57070         1.25638
O         70.03701        52.61148        -1.36963
O         39.45513        52.43694         0.73644
O         67.81037        38.62564        -2.27618
O         57.20384        57.77499         2.91895
O         66.51135        65.94090         1.79346
O         43.32643        52.19325        -3.24555
O         56.59943        52.32259         3.11574
O         68.42001        68.87411        -2.98951
O         67.14430        39.63468         1.05914
O         70.28960        36.80746        -0.11921
O         46.77603        50.08690        -2.97593
O         53.43461        56.37117         3.06751
H         52.68879        55.79392         3.34118
O         50.76684        54.85930        -1.26320
H         50.10408        54.77657        -1.99991
O         55.99001        49.79172         2.84867
H         56.42896        50.39112         3.49748
O         66.23376        47.76531         2.84256
H         66.44451        48.68236         3.15141
O         48.33032        54.61908        -2.34705
H         47.92344        53.95853        -2.97411
O         71.60903        59.08422         2.43531
H         71.18598        59.69341         3.07841
O         68.09014        42.71140        -2.30790
H         68.05128        41.88914        -2.84150
O         57.51447        48.93936        -1.22077
H         58.37751        49.40777        -1.37511
O         60.61373        37.47419        -1.13234
H         59.93313        38.15000        -1.37909
O         46.66809        47.42393        -2.47542
H         46.69934        48.28754        -2.97757
O         59.84320        50.29871        -0.88842
H         59.96666        51.25912        -1.04472
O         70.82863        68.05298        -3.39714
H         69.91337        68.00407        -3.76144
O         62.13125        62.55149        -1.32577
H         62.88684        61.99809        -1.61365
O         50.43458        54.35185         2.35766
H         49.68560        54.96739         2.55955
O         42.33423        49.60446        -2.63216
H         42.64373        50.27294        -3.28621
O         46.88377        52.71698         0.50170
H         47.51687        52.91215         1.22447
O         66.88758        52.90449        -1.11461
H         67.74305        53.08341        -1.56567
O         42.93020        49.54097         1.01604
H         42.19171        50.14993         1.23334
O         47.13074        52.48398        -3.14271
H         47.13182        51.57550        -3.58444
O         61.12559        63.72149         1.98596
H         60.33628        64.20994         2.30046
O         52.98625        50.14540        -1.68737
H         52.30423        49.67802        -2.21579
O         65.75768        63.62048         2.65083
H         66.22500        64.42692         2.97399
O         55.61237        59.74922         2.92569
H         55.71276        58.95377         3.49773
O         54.06968        52.65360         3.05555
H         54.80640        52.82912         3.68628
O         59.81519        57.18209         3.39258
H         58.90818        57.46195         3.67221
O         56.29374        56.35996        -0.38000
H         55.59052        55.82213        -0.80250
O         43.62695        54.70127        -3.54717
H         43.78002        53.82185        -3.97307
O         51.97469        58.54463        -0.65525
H         52.69930        58.07061        -1.11366
O         56.31399        46.43090        -1.52299
H         56.79725        47.25950        -1.76715
O         71.31071        68.37838         0.17914
H         71.47508        67.68751         0.87061
O         69.99825        41.39273         0.51964
H         70.84592        40.91019         0.60501
O         51.11745        59.06088         2.84842
H         50.34647        59.50503         3.25729
O         71.26016        47.57826         1.93578
H         71.22569        48.42300         2.43252
O         71.46366        65.95402         1.49115
H         71.04763        65.56216         2.29378
O         43.23865        54.37721         0.05892
H         43.77613        54.67727         0.82139
O         66.01461        59.43998         3.07268
H         65.31678        60.07104         3.35278
O         62.39944        52.75660         3.26262
H         63.16021        53.30319         3.55303
O         70.13175        56.83186         2.51875
H         70.87931        57.45107         2.73109
O         59.46746        39.94712        -1.22990
H         60.12010        40.49262        -1.71999
O         63.69178        46.31492         2.83696
H         64.54244        46.74058         3.11199
H         37.67393        49.71237         0.15473
H         35.69068        51.13840         0.16938
H         37.88227        54.53406        -1.28124
H         35.79447        53.51095        -0.53959
H         39.21984        48.60069        -0.21606
H         39.52649        55.19501        -2.02228
H         41.24163        47.21914        -0.09237
H         41.60102        56.17361        -2.83347
H         45.08908        45.15632         0.88251
H         43.03469        46.42924         0.75499
H         44.95562        58.16014        -0.53633
H         42.90191        56.94500        -1.04922
H         46.56811        43.89931         0.48029
H         46.61253        59.09438        -0.23615
H         48.60035        42.66041         0.81966
H         48.57005        60.26149         0.60432
H         52.34763        40.42758         1.24877
H         50.28096        41.71536         1.28289
H         52.26771        62.36858         0.57908
H         50.18357        61.29793         1.17867
H         54.10687        39.44835         1.38558
H         53.88568        63.08348        -0.27701
H         56.25590        38.36474         1.78201
H         55.99812        64.23664        -0.64463
H         60.12988        36.28260         1.59694
H         58.09794        37.54169         2.04103
H         59.68117        66.45161        -0.87427
H         57.60850        65.21838        -0.68714
H         61.50157        35.15733         0.41569
H         61.27367        67.49692        -0.73457
H         63.62336        33.92611         0.40431
H         63.34931        68.75974        -0.77079
H         67.43242        31.86613         0.47300
H         65.32829        33.06845         0.71588
H         66.99148        70.84418        -1.48501
H         64.98587        69.81239        -0.55425
H         69.17877        31.09772         0.79313
H         68.55710        71.55653        -2.57449
H         73.15241        30.83716        -0.85025
H         71.25794        29.82158         0.43144
H         72.96045        33.13909        -1.73134
H         72.51085        34.73699        -2.80543
H         72.15491        36.97921        -3.78073
H         72.09318        40.33175        -3.84721
H         72.37145        42.62940        -2.94660
H         72.88692        44.19385        -1.74539
H         72.99524        46.49823        -0.92947
H         73.23729        48.20764         0.04961
H         73.12209        50.59686        -0.34113
H         73.13661        52.59423        -0.29770
H         72.99830        55.01190        -0.22651
H         72.59877        56.98192        -0.90905
H         72.63403        59.37471        -0.44937
H         73.06492        60.99721         0.77211
H         73.11847        63.41102         0.37799
H         72.59220        64.67939        -1.13245
H         72.50517        66.85810        -2.25726
H         72.92367        69.12252        -1.90119
H         72.84265        71.56871        -2.04184
H         70.69360        72.77242        -2.47052
