         291
 CSIRO Nanostructure Databank - Neutral Graphene Oxide Data Set
C          1.48270         2.77210         0.25002
C          1.92657         3.74268         1.07086
C          2.39951         1.83251        -0.37505
C          3.39161         4.05639         1.33501
C          2.50940         6.42999         1.96143
C          2.24408         7.70220         1.61672
C          3.51705         5.60046         1.24211
C          2.79572         8.37368         0.40796
C          1.86566        10.70885         1.10298
C          1.66634        12.02119         0.89954
C          2.64742         9.85691         0.17216
C          2.44164        12.79832        -0.09308
C          1.30231        15.00034         0.35626
C          1.26605        16.44767         0.23352
C          2.41039        14.29011         0.00928
C          2.41025        17.17086         0.04868
C          2.46464        18.61465        -0.09549
C          3.72421         2.05572        -0.27892
C          4.31849         3.30150         0.34819
C          4.87032         1.12253        -0.60088
C          4.98580         4.12777        -0.74041
C          4.22399         6.27637         0.12333
C          3.88638         7.65682        -0.40528
C          5.00395         5.47619        -0.85039
C          5.22405         8.45453        -0.47666
C          3.61886        10.51777        -0.84523
C          3.56714        12.07733        -0.80168
C          5.01700         9.92161        -0.81279
C          4.84587        12.87189        -1.15812
C          3.57235        15.04936        -0.60462
C          3.72472        16.40455         0.12383
C          4.85633        14.23383        -0.42729
C          4.85190        17.22631        -0.47149
C          3.62618        19.31002        -0.14869
C          4.95732        18.62096         0.10558
C          6.08068         2.04792        -0.32209
C          6.09064         3.25114        -1.27648
C          7.40964         1.34951        -0.24801
C          7.36834         4.04998        -1.24737
C          6.10510         6.19986        -1.58719
C          6.27631         7.72507        -1.38025
C          7.28553         5.30925        -1.75394
C          7.59995         8.52347        -1.41382
C          6.15391        10.70726        -0.89142
C          6.11023        12.12629        -0.76804
C          7.49625        10.08308        -1.29731
C          7.27952        12.87133        -0.16741
C          6.12322        15.01460        -0.73534
C          6.14428        16.47053        -0.87486
C          7.33154        14.35482        -0.49117
C          7.39191        17.20958        -0.82258
C          6.20212        19.34154        -0.31895
C          7.40249        18.63904        -0.60374
C          8.57775         1.96298        -0.54467
C          8.59232         3.45072        -0.64859
C          9.90188         1.24448        -0.66808
C          9.83554         4.20991        -0.26275
C          9.14570         6.44403        -1.18170
C          8.97077         7.90529        -1.14173
C          9.95101         5.69664        -0.39818
C         10.05064         8.61492        -0.41532
C          8.56467        10.68974        -0.33946
C          8.64197        12.22899        -0.54712
C          9.94571        10.06262        -0.26226
C          9.70077        12.94024         0.23665
C          8.57096        15.02731        -0.44434
C          8.68345        16.44554        -0.94734
C          9.75824        14.35135         0.06425
C          9.79020        17.23057        -0.22503
C          8.62019        19.35784        -0.56764
C          9.93806        18.66587        -0.79425
C         11.08652         1.99645        -0.05721
C         11.19346         3.51433        -0.12554
C         12.10809         1.27830         0.43501
C         11.98475         4.07105         1.09593
C         10.93602         6.41207         0.44238
C         11.02234         7.87982         0.22737
C         12.06423         5.64607         1.08467
C         12.14974         8.55523         0.90447
C         10.94539        10.75501         0.34811
C         10.82630        12.17347         0.86063
C         12.15191        10.04428         0.82800
C         12.13711        12.92722         0.59775
C         10.94495        15.07148         0.33260
C         11.12409        16.47452        -0.19188
C         12.14361        14.40177         0.96631
C         12.18070        17.24195         0.61904
C         11.16496        19.36634        -0.24608
C         12.26812        18.69896         0.21216
C         13.36679         1.84952         1.03130
C         13.35841         3.38226         1.16147
C         14.58983         1.31951         0.32696
C         14.63304         4.14620         0.94130
C         13.40359         6.36235         1.41148
C         13.45135         7.84445         1.02580
C         14.59571         5.64166         0.79499
C         14.63384         8.54096         0.99545
C         13.43508        10.71915         0.74352
C         13.41842        12.17377         0.52536
C         14.64387         9.99604         0.76324
C         14.71231        12.86616         0.86449
C         13.46339        15.09562         0.66202
C         13.49645        16.50132         0.58545
C         14.69483        14.36128         0.65275
C         14.69987        17.22254         0.64978
C         13.53889        19.35881         0.39781
C         14.71480        18.65130         0.60385
C         15.75995         2.05539         0.11965
C         15.80864         3.44981         0.39576
C         16.96837         1.36187        -0.28361
C         16.97946         4.23717         0.01284
C         15.88155         6.38977         0.65559
C         15.95068         7.79165         1.24951
C         17.19012         5.61451         0.63921
C         17.24749         8.54656         0.86258
C         15.83508        10.67621         0.44601
C         15.84386        12.15841         0.11612
C         17.12501         9.97988         0.45286
C         17.17378        12.79185         0.45307
C         15.91400        15.00836         0.66825
C         15.99077        16.49465         0.91826
C         17.17986        14.23536         0.71958
C         17.14151        17.13589         0.15215
C         16.03703        19.38008         0.80469
C         17.19300        18.64211         0.12586
C         18.17262         2.00595        -0.42634
C         18.22423         3.48087        -0.42078
C         19.42175         1.29073        -0.54955
C         19.52507         4.16517        -0.27669
C         18.32587         6.41604        -0.08839
C         18.52176         7.80783         0.52924
C         19.59275         5.56808        -0.11657
C         19.75513         8.40064         0.55517
C         18.09414        10.73081        -0.44549
C         18.35382        12.13355         0.02690
C         20.08262         9.86539         0.69072
C         19.61347        12.71832        -0.03461
C         18.50044        14.95679         0.48280
C         18.39964        16.34825        -0.07275
C         19.82246        14.17101         0.33145
C         19.70558        17.08657        -0.37701
C         18.53340        19.25706         0.08907
C         19.69337        18.54858        -0.11310
C         20.61450         1.94386        -0.49607
C         20.70220         3.38004        -0.31813
C         21.95649         4.01266        -0.19969
C         20.85323         6.17043        -0.01183
C         21.01319         7.66101         0.12566
C         22.02451         5.39018        -0.05137
C         21.51687         8.27589        -1.17100
C         20.78527        10.45735        -0.34446
C         20.77231        11.95403        -0.65755
C         21.36960         9.60092        -1.36872
C         22.08382        12.67703        -0.43267
C         20.88353        14.83889        -0.61175
C         20.97652        16.32468        -0.26856
C         22.14639        14.01653        -0.42277
C         22.12339        16.99845         0.01923
C         20.98394        19.17229         0.09615
C         22.12387        18.43162         0.18557
O          2.36366        12.45800        -1.54244
O         17.32855         4.11118        -1.41115
O         12.72070        12.63897        -0.69323
O          4.03109        16.21739         1.50354
O          5.15520        17.08345        -1.83007
O          8.83926         3.92419         0.75941
O          5.79722         7.17930        -2.62493
O         17.50128         9.59902         1.86475
O         18.85018        16.53966        -1.42819
O         18.02261        14.77720         1.84785
O         16.74461        17.87531        -1.03640
O         18.26049        10.38535        -1.61546
O         11.83737         9.33944         2.12592
O         14.17518         3.76606         2.30761
O          4.85765         6.15853         1.44695
O          8.46921         5.86126        -2.24972
O          8.55290         8.31264        -2.49564
O         15.01725         6.18372        -0.49335
O          1.74312         8.89496        -0.47184
O         10.97354         6.15487         1.90352
O         11.98473         3.87714        -1.28458
H         11.58638         3.48155        -2.08756
O          7.60553        10.55289        -2.66179
H          8.18649         9.91577        -3.14663
O         13.54359         6.31067         2.84281
H         12.72396         6.69581         3.22371
O          3.39362         7.43391        -1.72730
H          3.06023         8.30035        -2.07463
O         17.59631         5.38546         2.00502
H         17.15496         6.05891         2.58085
O         20.48526        14.74870        -1.98263
H         20.53251        13.79894        -2.26316
O         16.30197        19.48344         2.21236
H         16.32152        18.56276         2.57518
O         15.59808        12.34541        -1.30333
H         16.25904        11.82622        -1.80972
O         11.66290        16.36541        -1.52578
H         10.94436        16.05437        -2.12471
O          5.57929         2.71992         0.93270
O         11.77407        17.23965         2.03673
H         12.41470        17.80172         2.52465
O          9.28060        17.35788         1.11730
H         10.02814        17.55065         1.73171
O         19.80955        10.59153         1.80166
H         19.11291        10.14484         2.33914
O          3.69589         3.67040         2.68278
H          4.66971         3.73016         2.78752
O          9.82510        -0.07588        -0.14631
H          9.62815        -0.01450         0.81115
O         14.95142        12.65948         2.27944
H         14.24980        13.12886         2.78054
O          3.28692        15.30066        -1.98371
H          3.35796        14.44678        -2.47002
O         16.26067        16.69360         2.35568
H         16.97436        16.04757         2.59617
O          4.86213        13.10374        -2.58498
H          4.75209        12.23722        -3.03229
O          8.94164        12.57425        -1.91252
H          8.28097        12.12267        -2.49826
O         20.49894        12.03217        -2.10251
H         19.70120        11.46712        -2.27180
O          5.77366         8.46745         0.86217
H          6.53050         9.10561         0.91788
O          7.21988        12.76200         1.28701
H          6.34552        13.16547         1.55063
O         20.46815        14.20313         1.63199
H         19.79385        13.94105         2.29835
O         11.99883        14.47009         2.41763
H         11.78794        15.41050         2.63776
O         13.47265         1.28690         2.37209
H         14.02875         1.91668         2.88875
O          4.82426         0.52166        -1.88247
H          4.99214         1.22365        -2.55288
O          9.02780        16.32682        -2.39136
H          8.33866        15.76906        -2.81405
O         10.60552        12.07103         2.29088
H         10.95414        11.20595         2.60228
O          5.15161        18.53623         1.53800
H          4.69777        17.66879         1.83181
O         17.89899         6.70352        -1.43302
H         17.66810         5.84318        -1.86383
O         16.06239         7.57280         2.68187
H         16.29349         8.44160         3.08348
O          5.86927         2.84839        -2.65253
H          5.75862         3.65777        -3.19508
O          3.14821        10.16209        -2.17584
H          2.31382        10.67042        -2.31537
O         11.26596         3.66486         2.25628
H         11.69738         4.05921         3.04198
O          4.88227        13.87029         0.98312
H          4.61233        14.71061         1.48958
O          8.01160        10.34235         0.96815
H          7.86106        11.17603         1.48981
O         22.03750         7.91116         1.12935
H         21.76450         7.46554         1.95799
O         10.14086        18.70753        -2.23414
H          9.62245        17.97241        -2.64508
H          0.40212         2.61811         0.11702
H          1.19560         4.36888         1.60397
H          2.00597         0.91868        -0.84118
H          2.03297         5.99973         2.85527
H          1.50447         8.26490         2.20559
H          1.30620        10.20089         1.90151
H          1.01400        12.58268         1.58413
H          0.38947        14.48794         0.69728
H          0.28966        16.95169         0.29762
H          1.50745        19.15281        -0.18772
H          4.88219         0.29126         0.15499
H          3.61529        20.40501        -0.25660
H          7.40426         0.25891        -0.08701
H          6.28995        20.40197        -0.03108
H         10.11543         1.14231        -1.77354
H          8.58813        20.45028        -0.42988
H         12.02796         0.17925         0.44725
H         11.26026        20.43905        -0.48283
H         14.61708         0.23367         0.14810
H         13.57981        20.45238         0.27596
H         16.93194         0.26365        -0.33979
H         15.95974        20.42205         0.40449
H         19.38843         0.19636        -0.65126
H         18.60883        20.31508         0.38411
H         21.55496         1.37839        -0.56782
H         22.87442         3.40879        -0.23025
H         22.99712         5.89304         0.04126
H         22.04238         7.63768        -1.89448
H         21.76564        10.07956        -2.27570
H         22.99648        12.07273        -0.32250
H         23.11914        14.51616        -0.29968
H         23.08657        16.47413         0.08765
H         21.01814        20.26365         0.22698
H         23.08470        18.92965         0.37686
