         314
 CSIRO Nanostructure Databank - Neutral Graphene Oxide Data Set
C         31.70569        56.92873        -2.88899
C         31.85911        58.27780        -3.22771
C         31.19803        58.89140        -4.32384
C         32.43780        60.98624        -4.01998
C         31.48203        60.21079        -4.68648
C         33.59595        52.70633        -1.07413
C         33.65019        54.11922        -1.22995
C         32.62242        54.82835        -1.88296
C         33.70348        56.97780        -1.46294
C         32.63081        56.25279        -2.02753
C         33.72521        58.42704        -1.46537
C         32.74094        59.13703        -2.41532
C         34.14720        61.18304        -2.24022
C         33.12958        60.48107        -2.89019
C         35.40705        48.50858         0.61384
C         35.59404        49.85629         0.39467
C         34.60758        50.59757        -0.33416
C         35.89581        52.71002        -0.11390
C         34.66406        51.98303        -0.51230
C         35.86714        54.18506        -0.09009
C         34.80905        54.82892        -0.73473
C         36.00228        57.06119        -0.32419
C         34.88859        56.26669        -0.99612
C         35.83893        58.52641        -0.19816
C         34.88698        59.17601        -0.94532
C         36.00184        61.34256        -0.63612
C         34.98600        60.61092        -1.21933
C         37.60348        44.11747         1.02158
C         37.55623        45.56363         1.12586
C         36.38834        46.26900         1.13742
C         37.57580        48.40434         1.86673
C         36.25052        47.71229         1.57132
C         37.68210        49.86975         1.69743
C         36.75007        50.55381         0.98585
C         37.88714        52.78913         1.51846
C         36.94860        51.99405         0.69151
C         37.92456        54.16982         1.33690
C         36.94780        54.89199         0.53321
C         38.05680        57.06745         1.01936
C         36.98598        56.31914         0.49147
C         38.00690        58.53996         1.12225
C         36.80426        59.29226         0.62166
C         38.23715        61.36388         0.50482
C         36.83010        60.82209         0.50949
C         40.21971        39.94455         0.82710
C         40.21782        41.35859         0.88306
C         38.98902        42.05580         0.97473
C         39.86127        44.34608         0.19260
C         38.80425        43.45086         0.78524
C         40.12746        45.57690         1.03287
C         38.85424        46.23665         1.44943
C         40.17463        48.45854         1.62702
C         38.89515        47.68593         1.79111
C         40.19243        49.80146         1.95370
C         38.87957        50.48494         2.39118
C         40.23931        52.73666         2.50372
C         38.92030        52.02925         2.28902
C         40.26122        54.23059         2.36341
C         39.02324        54.97639         1.91691
C         40.32375        57.11825         1.96109
C         39.18177        56.40835         1.56799
C         40.41246        58.54052         1.72292
C         39.27651        59.25694         1.32580
C         40.60173        61.32332         1.14473
C         39.34848        60.66500         0.99153
C         42.70091        35.69111         0.38846
C         42.61458        37.06049         0.24998
C         41.41265        37.81035         0.47818
C         42.48545        39.97697        -0.17621
C         41.36091        39.21021         0.42809
C         42.55828        41.43751         0.02729
C         41.49776        42.05604         0.72387
C         42.69751        44.22015         0.61484
C         41.73998        43.35465         1.24957
C         42.59843        45.67257         0.61718
C         41.39044        46.35449         0.93217
C         42.56606        48.49516         0.89384
C         41.37722        47.75981         1.15529
C         42.69450        49.87452         1.41496
C         41.49520        50.51269         2.09687
C         42.52970        52.78681         1.50147
C         41.59626        52.02164         2.47662
C         42.68498        54.23983         1.92352
C         41.54646        54.92114         2.24668
C         42.84280        57.07916         2.48142
C         41.51003        56.38269         2.45830
C         42.86449        58.52199         2.13797
C         41.68538        59.21937         1.84180
C         42.98655        61.31951         1.75362
C         41.75676        60.63960         1.57938
C         45.38436        32.97805         0.62159
C         44.13552        33.55962         0.59178
C         45.25197        35.71821        -0.06580
C         43.96057        34.94703         0.15393
C         45.20906        37.19738         0.08393
C         43.87242        37.85443         0.13843
C         45.05534        40.01041        -0.49314
C         43.80974        39.25236        -0.35672
C         44.92461        41.44483        -0.78653
C         43.72971        42.15942        -0.27583
C         44.91681        44.35426        -0.44238
C         43.76078        43.56877        -0.07647
C         44.85912        45.75934        -0.35026
C         43.71599        46.44472         0.15693
C         44.83584        48.69515        -0.06410
C         43.69622        47.87631         0.30534
C         44.88581        50.06410         0.21754
C         43.83255        50.71805         0.94988
C         44.99417        52.90988         0.85502
C         43.84388        52.09184         1.17948
C         45.08169        54.23631         1.24707
C         43.96401        54.93348         1.86637
C         45.40050        56.93122         2.47827
C         44.05644        56.26906         2.23082
C         45.29170        58.46121         2.50362
C         44.10892        59.19454         2.21180
C         45.41220        61.31312         2.25852
C         44.17077        60.63233         2.09560
C         46.58475        33.69059         0.37413
C         47.71984        35.87231        -0.01192
C         46.57059        35.07449         0.12036
C         47.66617        37.28631        -0.26779
C         46.41049        37.96251        -0.28990
C         47.53274        40.13288        -0.64088
C         46.31562        39.36957        -0.48410
C         47.49629        41.53748        -0.80854
C         46.20206        42.23950        -0.97553
C         47.33932        44.43504        -0.90738
C         46.15340        43.70315        -0.77841
C         47.29733        45.85632        -0.97119
C         45.98922        46.53287        -0.89450
C         47.27066        48.75078        -0.83636
C         45.96460        48.05133        -0.77998
C         47.19290        50.22294        -0.91641
C         45.94520        50.90578        -0.41508
C         47.36022        53.04177        -0.11689
C         45.97682        52.41732        -0.18991
C         47.42422        54.40626         0.23735
C         46.23471        55.06955         0.81534
C         47.78406        57.04102         1.30481
C         46.42809        56.44564         1.43988
C         48.15559        58.23296         2.02155
C         46.42372        59.19988         2.80187
C         47.90134        61.19472         2.53702
C         46.58464        60.60505         2.57255
C         48.84420        38.05154        -0.41702
C         49.99092        40.23031        -0.62994
C         48.80026        39.46226        -0.57401
C         49.95681        41.63128        -0.73619
C         48.68788        42.27816        -0.84863
C         49.92575        44.53827        -0.86529
C         48.63284        43.73060        -1.07804
C         49.72250        45.98311        -0.66442
C         48.47953        46.61470        -0.99233
C         49.78658        48.73313        -1.26415
C         48.44653        48.06568        -0.99402
C         49.75656        50.24969        -1.25881
C         48.46158        51.00600        -1.09732
C         49.72578        53.14438        -0.82725
C         48.51852        52.41361        -0.62331
C         49.71373        54.53838        -0.65311
C         48.58045        55.16758        -0.06690
C         49.72412        57.44801        -0.17676
C         48.66352        56.55414         0.34233
C         49.89273        58.82379         0.41870
C         49.03683        59.17740         1.56444
C         50.25606        61.27258         1.80352
C         49.06808        60.54715         2.06792
C         51.16677        42.41035        -0.66611
C         52.47542        44.46867        -0.48703
C         51.19863        43.79420        -0.58185
C         52.61342        45.75583         0.03062
C         50.69515        46.79201        -0.06624
C         52.08439        48.83200        -0.16260
C         50.86686        48.15819        -0.36070
C         52.07715        50.28283        -0.36932
C         51.01421        50.96702        -0.92507
C         52.15460        53.24866        -1.83724
C         50.95772        52.42467        -1.32995
C         52.07972        54.72536        -1.61752
C         50.82209        55.37143        -1.18303
C         52.12291        57.66936        -1.07172
C         50.85993        56.87543        -0.96805
C         52.24285        58.92631        -0.44338
C         51.19870        59.49816         0.33424
C         52.56139        61.44363         0.96949
C         51.33721        60.73324         1.04804
C         53.59901        46.74698        -0.14778
C         54.56308        48.93320        -0.09899
C         53.37993        48.15107        -0.01170
C         54.58479        50.33413        -0.20523
C         53.30015        51.03399         0.02274
C         54.74500        53.11102        -1.55558
C         53.48809        52.57453        -1.98342
C         54.96053        54.48309        -1.82562
C         53.07411        55.56563        -2.02245
C         54.74328        57.55915        -1.52124
C         53.25961        56.99990        -1.73598
C         54.78555        58.98897        -1.02581
C         53.49877        59.70290        -0.55906
C         54.88940        61.59608         0.24648
C         53.65269        60.93792         0.24596
C         55.76717        51.02696        -0.49624
C         57.02655        53.10152        -0.69457
C         55.84218        52.39043        -0.92310
C         57.12396        54.51729        -0.82211
C         55.99461        55.27905        -1.31396
C         57.15489        57.36536        -0.82887
C         55.97484        56.72416        -1.27079
C         57.22882        58.79367        -0.58038
C         56.05696        59.56979        -0.57433
C         57.33687        61.55917         0.07549
C         56.09137        60.93429        -0.13706
C         58.31244        55.18744        -0.53153
C         59.59014        57.24266        -0.33080
C         58.36529        56.60087        -0.57990
C         59.68213        58.65047        -0.21712
C         58.47739        59.41864        -0.27613
C         59.80089        61.44153         0.21170
C         58.53745        60.82521        -0.01835
C         60.91683        59.30067         0.02104
C         60.96676        60.68450         0.21513
O         39.34848        54.83214         3.33261
O         49.42713        44.18210        -2.20969
O         42.88816        39.46788        -1.48083
O         32.46739        59.04446        -0.99527
O         37.12425        52.20579        -0.76381
O         36.85281        58.90430         2.03791
O         38.20888        47.89350         3.07257
O         44.50944        35.21920        -1.21067
O         51.18616        52.64210        -2.76766
O         53.21252        52.16731         0.50477
O         45.32696        53.03977        -1.43155
O         45.40508        41.80999        -2.13252
O         45.61905        47.37997        -2.03643
O         42.49884        49.79894         2.88523
O         50.36477        56.31322        -2.23005
O         54.07556        57.57273        -2.80805
O         54.02717        59.87274        -1.90292
O         49.05968        50.79717        -2.42179
O         51.53907        46.17966         0.85280
O         42.10414        56.81554         3.73263
O         44.66402        37.70651         1.37307
O         46.11802        50.60277        -1.84367
O         36.10508        56.67141        -1.74469
O         54.10752        55.02734        -2.78907
O         47.53656        58.48403         3.25934
O         45.82467        56.29697         0.12194
O         39.34506        52.48343         3.62339
O         39.62293        45.44186         2.41030
O         49.16955        58.64214        -0.84672
O         40.25242        44.23642        -0.95786
O         41.79274        52.78930         0.23963
H         42.37347        53.16184        -0.45902
O         38.71068        50.14732         3.78641
H         39.04862        50.90457         4.32063
O         36.20432        61.36561         1.71665
H         36.35515        60.69468         2.42576
O         50.18196        48.33847        -2.60587
H         49.59517        48.82312        -3.22864
O         53.41894        51.36127        -2.51400
H         52.49689        51.23256        -2.85906
O         45.85667        56.45234         3.76439
H         45.18780        56.69601         4.43832
O         41.19338        43.63254         2.44452
H         41.44261        44.52134         2.77054
O         35.51740        47.66870         2.83512
H         36.19102        47.52723         3.53875
O         42.18324        52.13723         3.77379
H         41.59225        51.70362         4.42374
O         46.31878        53.17634        -2.46515
H         46.38154        52.25304        -2.82904
H         30.97704        56.31974        -3.44457
H         30.47437        58.30682        -4.90934
H         32.67419        61.99551        -4.38556
H         30.96374        60.64358        -5.55389
H         32.69765        52.16512        -1.40613
H         31.78488        54.26244        -2.31734
H         34.36379        62.21416        -2.55851
H         34.51995        48.01532         0.18871
H         33.71730        50.05513        -0.68653
H         36.12915        62.40106        -0.91041
H         36.68926        43.54731         1.25012
H         35.44334        45.73394         0.95595
H         38.35796        62.43306         0.27157
H         39.28955        39.40099         1.05250
H         38.08960        41.45686         1.19485
H         40.67045        62.39653         0.91230
H         41.79536        35.10935         0.61909
H         40.51557        37.26299         0.80572
H         43.01865        62.40968         1.61061
H         45.46600        31.92012         0.91132
H         43.25478        32.99258         0.92676
H         45.45769        62.39410         2.06203
H         47.54693        33.16629         0.46222
H         48.70956        35.39684         0.06287
H         47.95626        62.29137         2.63313
H         49.82243        37.55098        -0.36391
H         50.96164        39.71738        -0.56186
H         50.35419        62.29840         2.18885
H         52.11290        41.85877        -0.55828
H         53.35655        43.94691        -0.88985
H         52.67562        62.38451         1.52736
H         54.60305        46.43441        -0.47377
H         55.52267        48.39831        -0.17275
H         54.96798        62.58169         0.72930
H         56.72009        50.48320        -0.39313
H         57.88852        52.56479        -0.27141
H         57.36764        62.61995         0.36481
H         59.21034        54.62106        -0.24604
H         60.49163        56.62958        -0.18563
H         59.84164        62.52472         0.39466
H         61.83990        58.70473         0.05651
H         61.93475        61.17354         0.39338
