         276
 CSIRO Nanostructure Databank - Neutral Graphene Oxide Data Set
C        -10.80505         0.86200         1.76780
C         -9.77769         1.60229         1.07275
C         -8.65520         0.88166         0.35449
C         -7.26571         1.43491         0.67892
C         -6.10094         0.68104         0.05429
C         -5.04172         1.43276        -0.73524
C         -3.96660         0.74444        -1.55291
C         -2.71626         1.51152        -2.13499
C         -1.36630         0.75423        -2.02871
C         -0.05685         1.46955        -1.78373
C          1.03779         0.65398        -1.08869
C          2.15114         1.32131        -0.32101
C          3.32628         0.50914         0.19080
C          4.53148         1.18659         0.95410
C          5.89796         0.72262         0.42567
C          7.15096         1.33875         0.99738
C          8.51219         0.66461         0.76017
C          9.73876         1.33340         1.29718
C         11.05596         0.78052         0.87676
C         -9.78169         2.96617         0.87996
C         -8.58415         3.64016         0.41699
C         -7.28503         2.95543         0.80109
C         -6.01800         3.57074         0.29791
C         -4.87793         2.87114        -0.34495
C         -3.83136         3.72287        -0.98094
C         -2.65867         3.03889        -1.64039
C         -1.32546         3.76923        -1.54519
C         -0.04788         2.97607        -1.58275
C          1.26257         3.58501        -1.14481
C          2.38864         2.77955        -0.58878
C          3.45877         3.50944         0.18028
C          4.50362         2.73959         0.95139
C          5.74707         3.45925         1.52624
C          7.10662         2.76680         1.47962
C          8.39568         3.52557         1.47281
C          9.65867         2.76061         1.86139
C         -8.56297         4.96555         0.05219
C         -7.32918         5.73198        -0.00297
C         -6.15703         5.02269         0.64385
C         -4.78355         5.71491         0.61713
C         -3.78710         5.14917        -0.43776
C         -2.47455         5.86291        -0.42398
C         -1.24421         5.06743        -0.74051
C          0.07108         5.77587        -0.60901
C          1.31590         5.10290        -1.11382
C          2.60841         5.81306        -0.84712
C          3.59484         5.03971         0.00033
C          4.80996         5.76646         0.48743
C          6.11068         4.98960         0.37850
C          7.33481         5.69408         0.89704
C          8.48664         4.85124         1.18605
C         -7.29848         7.05426        -0.34161
C         -5.99049         7.78992        -0.52642
C         -4.89875         7.22564         0.36489
C         -3.61146         7.96127         0.36791
C         -2.35240         7.14583         0.38148
C         -1.05989         7.88235         0.42435
C          0.18905         7.18627        -0.04603
C          1.44829         7.97400        -0.17762
C          2.64574         7.37392        -0.89834
C          3.83936         8.05685        -0.22972
C          4.90078         7.28290         0.47355
C          6.15448         7.92499         1.05720
C          7.39116         7.05579         0.94516
C         -5.99186         9.30139        -0.38587
C         -4.84508        10.00077        -0.32747
C         -3.47646         9.33597        -0.33836
C         -2.40592        10.02661         0.44189
C         -1.03064         9.41849         0.65468
C          0.06319        10.11261        -0.21474
C          1.44305         9.47175        -0.13962
C          2.59775        10.17780        -0.23119
C          3.97203         9.54445        -0.52609
C          5.19274        10.11163         0.18065
C          6.22105         9.39097         0.66492
C        -10.83871        -0.49525         1.82823
C         -9.94020        -1.33686         1.00246
C         -8.80072        -0.63390         0.31635
C         -7.60694        -1.43376        -0.15431
C         -6.17572        -0.85121        -0.16834
C         -5.27055        -1.51279        -1.23585
C         -4.02568        -0.79043        -1.69760
C         -2.71491        -1.53242        -1.96678
C         -1.41280        -0.77996        -2.04008
C         -0.06970        -1.52626        -1.98373
C          1.19373        -0.78619        -1.57353
C          2.60586        -1.45064        -1.46365
C          3.46591        -0.89132        -0.32732
C          4.80850        -1.54406        -0.13803
C          6.02238        -0.65804        -0.10733
C          7.38433        -1.32707        -0.22639
C          8.66574        -0.58259        -0.08692
C         10.04856        -1.33594        -0.13407
C         11.17592        -0.46511         0.39127
C         -9.95748        -2.85882         1.18712
C         -8.60621        -3.54597         0.97719
C         -7.61330        -2.91955         0.06498
C         -6.32629        -3.67147        -0.20889
C         -5.23403        -3.01893        -1.00274
C         -3.93375        -3.74284        -1.27239
C         -2.70885        -3.05140        -1.80912
C         -1.39368        -3.84202        -1.93482
C         -0.08566        -3.06012        -2.25751
C          1.25197        -3.77340        -1.72403
C          2.55347        -3.01596        -1.50278
C          3.87906        -3.80821        -1.15133
C          4.94833        -2.98698        -0.45264
C          6.31269        -3.63299        -0.45653
C          7.27010        -2.74218         0.26911
C          9.37360        -3.82025         0.07469
C         10.07058        -2.76004         0.47513
C         -8.30710        -4.68594         1.63737
C         -6.94703        -5.34579         1.71619
C         -5.93940        -4.79395         0.70265
C         -4.75428        -5.61530         0.31834
C         -3.90063        -5.20548        -0.85874
C         -2.66351        -6.01017        -1.11754
C         -1.38709        -5.33961        -1.62036
C         -0.06102        -6.03355        -1.28776
C          1.22865        -5.24311        -1.27561
C          2.32719        -5.69742        -0.31116
C          3.66517        -5.02370        -0.24020
C          5.00214        -5.61249         0.46695
C          6.32545        -5.07220        -0.13086
C          7.63445        -5.73928         0.34850
C          8.87229        -5.01217        -0.24542
C         -6.99187        -6.86417         1.69013
C         -5.90351        -7.62984         1.42857
C         -4.58776        -7.01603         0.94486
C         -3.82994        -8.01161         0.02684
C         -2.62158        -7.44738        -0.66187
C         -1.33842        -8.19347        -0.57300
C         -0.13905        -7.30422        -0.45762
C          1.04913        -7.87679         0.22612
C          2.35902        -7.12202         0.23717
C          3.40683        -7.91931        -0.55569
C          5.29494        -7.12396         0.76491
C          6.33054        -7.83073        -0.05714
C          7.52120        -7.17587        -0.16263
C         -5.83238        -9.03411         1.82693
C         -4.77448        -9.82711         1.54234
C         -3.75281        -9.41451         0.54950
C         -2.45028       -10.12215         0.50075
C         -1.30467        -9.52415         0.09379
C          0.04052       -10.21486         0.06038
C          1.16356        -9.35129         0.67647
C          2.52655        -9.97638         0.38290
C          3.61008        -9.31937        -0.11254
C          4.93157        -9.91217        -0.34278
C          6.11213        -9.23457        -0.40228
O          5.90107         0.49366        -1.00219
O          2.21758         5.44485        -2.20883
O         -6.23498        -3.88264        -1.64518
O          4.68084        -2.54382         0.91390
O          2.81449        -0.64098         0.93950
O         -6.23195         0.87021         1.51423
O          8.03939        -0.77107        -1.39843
O         -4.63327        -4.55047         1.32544
O         -3.75328        -6.90341         2.05933
O          1.17433         7.25726         1.04958
O          2.18472        -3.51517        -2.81026
O         -2.13091        -1.18681        -3.24733
O          2.60576        -4.71813         0.72467
O          2.34773         3.06540        -2.00059
O          6.56344        -4.59849        -1.49474
O          3.76183         7.85526         1.20411
O         -4.86564         3.04169         1.08574
O         -0.53251         3.72867        -2.74768
O         -4.47134         7.99649         1.52454
O          3.72983         5.47628         1.40232
O         -1.51938        -4.88350        -2.96803
O         -4.47448        -9.04641        -0.71954
O          0.06970        -7.08630         0.98116
O         -8.03698        -2.32332        -1.20143
O          4.98657        -7.58897         1.84737
O         -5.14000        -1.11831        -2.59838
O         -3.69074        -3.61478        -2.70731
O          3.29511         3.18533         1.60643
O         -8.86115         1.37357        -0.96261
O          7.03338         1.65842         2.41374
O         -2.10065        -8.22078        -1.80297
O          7.42651        -2.92187         1.47597
O         -3.69429         3.72916        -2.41438
O         -3.41224         6.05894        -1.50709
O          3.94325        -7.43948        -1.54467
O         -6.61705         4.84148         2.07205
O         -3.81910        -6.02042        -2.03941
O          6.25542         4.34729        -0.73770
O         -1.58960         7.17470         1.60439
O          0.81219        -0.89986        -2.95967
O          0.91258         0.92503         0.34857
O         -0.43886         4.87276         0.45488
O        -10.00929        -0.97868        -0.41050
O          0.90974        -6.14811        -2.36649
O         -5.18140         1.30046        -2.16604
O         -0.45942         1.14752        -3.11280
O         -7.13965         3.42889         2.21993
O          9.04472         0.32514         2.09406
O          2.58021         7.82202        -2.26568
H          2.40347         7.03591        -2.84276
O         10.40567        -1.49764        -1.52047
H          9.57458        -1.57503        -2.04457
O        -10.47471        -3.12629         2.48671
H        -10.72966        -4.06839         2.54447
O          5.49620         3.99467         2.73440
H          4.51805         4.13738         2.82042
O         -0.66662         9.65153         2.01721
H         -1.03659         8.91226         2.55230
O         -3.04779         9.08941        -1.68934
H         -2.17875         9.53074        -1.84395
O          0.40168       -10.42406        -1.30995
H         -0.38685       -10.72494        -1.80729
O         -2.94678         1.57521        -3.53081
H         -3.83863         1.95961        -3.67841
O          4.43614         0.81198         2.32385
H          3.86387         0.01085         2.38805
O          4.42979        -4.23542        -2.38908
H          3.68830        -4.43571        -3.00832
O         10.81737         3.49203         1.46999
H         10.83136         3.57257         0.49420
O          3.32457        -1.05310        -2.63630
H          2.76477        -1.29166        -3.41291
O          4.24528         9.81047        -1.91765
H          3.63856         9.24790        -2.45706
O          0.01552        -3.09465        -3.67633
H         -0.29357        -3.97279        -3.99524
O          2.68351        -7.07669         1.63929
H          2.65652        -6.12411         1.90776
O          4.96581        -5.03118         1.77772
H          4.85692        -5.76855         2.42537
O         -6.46725        -5.01553         3.04575
H         -5.48787        -5.13985         3.02472
O         -4.13422         5.50868         1.86996
H         -4.80106         5.16607         2.51067
O          1.00147        -9.38353         2.10268
H          1.53880        -8.64515         2.47152
O          5.95980         7.96553         2.50491
H          5.01090         8.18735         2.65400
O         -5.53310        -1.42099         1.01910
H         -5.75252        -0.84627         1.79255
O          7.69687        -5.74654         1.77276
H          7.60568        -4.81225         2.07841
O         -5.57785         7.48406        -1.88722
H         -6.17731         7.94821        -2.50691
O         -0.38069        10.00740        -1.57998
H          0.28807        10.41976        -2.16600
H         12.18332        -0.85305         0.17585
H         11.95235         1.37143         1.11808
H          9.68669         2.68587         2.97937
H          9.47485         5.33265         1.26081
H          8.34554         7.52929         1.22943
H          7.10376         9.93425         1.03947
H          5.32345        11.20094         0.07719
H          2.54677        11.27983        -0.24842
H          0.12187        11.19429         0.08054
H         -2.71813        10.74951         1.21488
H         -4.87900        11.10031        -0.27326
H         -6.95721         9.83207        -0.38729
H         -8.22056         7.52960        -0.71291
H         -9.50780         5.48718        -0.16027
H        -10.64713         3.57578         1.18349
H        -11.55088         1.44777         2.32747
H        -11.59188        -1.00127         2.44903
H        -10.67351        -3.27153         0.41807
H         -9.04519        -5.09481         2.34628
H         -7.88133        -7.34249         2.13262
H         -6.64153        -9.41348         2.46987
H         -4.71573       -10.84624         1.95319
H         -2.40075       -11.12297         0.96028
H         -0.01374       -11.19766         0.60692
H          2.62825       -11.03138         0.68502
H          4.95639       -11.00135        -0.50663
H          7.01590        -9.80678        -0.66702
H          8.39005        -7.66253        -0.63514
H          9.39125        -5.56406        -1.05326
H         10.82923        -2.92881         1.26206
