         249
 CSIRO Nanostructure Databank - Neutral Graphene Oxide Data Set
C         31.16958        31.39495        -2.15663
C         30.87886        32.55991        -2.44744
C         30.70370        36.04427        -2.01315
C         30.89666        37.17883        -1.57355
C         30.68293        40.20610        -1.23853
C         30.75497        41.44704        -1.47062
C         33.10214        28.91312        -0.68234
C         32.42248        29.23829        -1.66331
C         33.51343        31.46486        -1.50880
C         32.43812        30.58800        -2.29524
C         33.69273        32.79007        -1.83149
C         31.67915        33.72134        -2.67470
C         33.51123        35.97184        -1.47593
C         31.59751        35.06424        -2.55239
C         33.26378        37.31310        -0.93360
C         31.86648        37.94482        -0.75131
C         32.99095        40.17015        -0.60897
C         31.88794        39.43679        -0.94862
C         32.99823        41.68611        -0.48594
C         31.71257        42.42941        -1.19860
C         33.06067        44.31419        -1.04567
C         31.92897        43.76701        -1.39369
C         35.41089        27.40791         0.81705
C         35.29948        28.80610         0.51478
C         34.24216        29.46686        -0.04980
C         35.60331        31.60523        -0.10756
C         34.21503        30.99017        -0.23462
C         35.70902        33.01111        -0.43588
C         34.63920        33.68108        -1.13356
C         35.56319        35.79016        -0.15000
C         34.52878        35.12184        -0.99682
C         35.53371        37.30078         0.01305
C         34.30224        38.01306        -0.38184
C         35.53588        40.12692        -0.50535
C         34.20972        39.47873        -0.01088
C         35.55059        41.64983        -0.42938
C         34.31052        42.31485        -0.99846
C         35.48813        44.53084        -0.32752
C         34.30665        43.85829        -0.75761
C         35.60731        45.91667        -0.09202
C         37.68082        27.35623         1.58232
C         36.38316        26.81150         1.31065
C         37.65530        28.79031         1.31860
C         36.55584        29.49676         0.82387
C         37.91833        31.60001         0.77285
C         36.64916        30.92205         0.51862
C         38.04039        33.03451         0.48436
C         36.89303        33.71688        -0.07097
C         38.02048        35.89122         0.27498
C         36.88787        35.14689        -0.04828
C         37.99374        37.33349         0.32989
C         36.80497        38.02308         0.15160
C         38.05988        40.18476        -0.27061
C         36.76435        39.53602         0.23108
C         37.98663        41.67255         0.03814
C         36.69304        42.35336        -0.12623
C         37.83706        44.50304         0.49724
C         36.69509        43.82108        -0.00914
C         37.83685        45.89517         0.75307
C         36.61892        46.48798         0.39468
C         39.99550        24.49981         1.50787
C         39.02287        25.24222         1.75400
C         40.17799        27.30413         1.84381
C         38.85525        26.65407         1.85572
C         40.08410        28.75943         2.15842
C         38.85609        29.53040         1.73397
C         40.36955        31.60172         1.17748
C         39.00602        30.92781         1.28326
C         40.26436        33.04761         1.66689
C         39.17391        33.74005         0.85061
C         40.33609        35.96498         1.27854
C         39.34298        35.17846         0.42726
C         40.41870        37.43162         0.99140
C         39.24319        38.08064         0.53685
C         40.45759        40.19201         0.48230
C         39.26749        39.48037         0.32402
C         40.43106        41.64508         0.17682
C         39.13281        42.36212         0.27845
C         40.30757        44.66912         0.15831
C         39.15607        43.79870         0.75604
C         40.36522        46.00347         0.94165
C         38.98732        46.53859         1.45460
C         40.13754        48.71705         1.57411
C         39.13872        48.02965         1.34834
C         42.43226        24.54851         0.52599
C         41.07422        25.18033         0.68700
C         42.63473        27.22537         1.20174
C         41.31590        26.62081         1.38496
C         43.01950        28.45426         1.79050
C         41.28978        29.59489         2.31428
C         42.81554        31.51745         2.09152
C         41.48674        30.84684         1.85672
C         42.82843        33.03427         2.03661
C         41.60165        33.76102         1.65432
C         42.82096        35.99025         1.97685
C         41.54807        35.22067         1.78069
C         42.80485        37.49074         1.79782
C         41.60577        38.15997         1.21984
C         42.89826        40.28749         0.97223
C         41.66075        39.54729         0.88269
C         43.02620        41.71520         0.43957
C         41.70070        42.41741         0.14188
C         42.90568        44.69206         0.49148
C         41.66353        43.93256         0.15266
C         42.81626        46.18009         0.70767
C         41.49723        46.71294         1.16412
C         42.74814        48.76428         1.75386
C         41.43559        48.09167         1.99327
C         43.39736        25.25028         0.17563
C         44.78668        27.39910        -0.02107
C         43.69171        26.63185         0.41552
C         44.80615        28.82893         0.20755
C         43.94838        29.33112         1.20885
C         45.33597        31.47390         1.33026
C         44.08433        30.73006         1.74032
C         45.39050        32.98280         1.48946
C         44.15574        33.74732         1.88353
C         45.34891        36.01354         1.41111
C         44.14133        35.26096         1.85599
C         45.40051        37.39410         1.50063
C         44.14457        38.20691         1.77138
C         45.13465        40.49060         1.83392
C         44.07145        39.65829         1.40024
C         45.15810        41.87736         1.70975
C         44.03224        42.58524         1.17163
C         45.23290        44.74439         1.49121
C         44.06571        43.97143         1.08512
C         45.33991        46.12085         1.16001
C         44.12664        46.92461         0.89084
C         43.82675        48.18926         1.57055
C         47.17693        27.32831        -0.76287
C         45.98682        26.92975        -0.63872
C         47.61837        28.63009        -1.08178
C         45.82675        29.72351        -0.32492
C         47.60210        31.53214         0.11137
C         46.23174        30.87054         0.30364
C         47.36800        33.02085        -0.18544
C         46.53637        33.74476         0.85266
C         47.49397        35.95197        -0.02204
C         46.52078        35.24448         0.86885
C         47.78630        37.37103         0.40207
C         46.65049        38.06903         1.12268
C         47.99961        40.17326         0.92258
C         46.99854        39.32184         1.56980
C         48.16921        41.55206         1.24299
C         46.31401        42.61604         2.09416
C         48.32127        44.84250         1.39519
C         46.33371        43.98531         2.04391
C         47.84376        46.13156         0.96725
C         46.68308        46.57753         1.13224
C         50.10691        28.97644        -1.03781
C         48.76658        29.41930        -0.86352
C         49.77593        31.68712        -1.20270
C         48.67218        30.86704        -0.78433
C         49.58146        33.10215        -1.45448
C         48.33860        33.80844        -1.00615
C         49.58890        36.05811        -1.36636
C         48.37834        35.30094        -0.82628
C         49.30760        37.55691        -1.67455
C         48.36958        38.25746        -0.70243
C         49.09152        40.63504        -1.17928
C         48.48532        39.70153        -0.32464
C         49.56183        41.89205        -0.73275
C         48.95978        42.44663         0.45495
C         49.78982        44.46379        -0.49088
C         49.01620        43.94818         0.60051
C         51.10195        29.67717        -1.33863
C         51.99707        31.95700        -2.13651
C         51.06653        31.07300        -1.55951
C         51.71339        33.15583        -2.39613
C         50.54208        33.88019        -2.12272
C         51.47283        36.10557        -2.92040
C         50.23573        35.28212        -2.55102
C         51.41624        37.33388        -2.78432
C         50.43538        38.29562        -2.40254
C         51.29885        40.65790        -2.94417
C         50.33571        39.60065        -2.77894
C         51.24122        41.84811        -2.60503
C         50.82335        42.59322        -1.38177
C         50.41009        44.05644        -1.48669
O         47.95314        37.89531        -2.04981
O         47.05704        33.31766        -1.57164
O         42.35032        28.90836         2.92912
O         47.31348        34.46058         1.86183
O         42.56435        44.39004        -0.90788
O         33.02440        33.28267        -2.97674
O         47.56591        44.49290         2.53338
O         32.88592        35.66181        -2.68570
O         46.18429        39.91230         2.54212
O         47.53646        41.98902         2.43518
O         43.58623        35.65974         3.15919
O         45.23338        30.81452         2.63618
O         49.10284        40.24103        -2.52853
O         42.79562        32.27390         3.32360
O         43.76335        41.55725        -0.89012
O         46.50872        29.40253        -1.51396
O         45.15679        33.34648         2.86730
O         39.11496        29.19860         3.16608
O         43.37981        38.08335         3.00938
O         35.17562        36.37731         1.13367
O         41.09390        41.94088        -1.12410
O         40.40485        35.65487         2.69348
O         43.49193        46.88062        -0.40599
O         51.85039        42.47065        -0.42349
H         52.67404        42.86109        -0.78091
O         34.33829        42.11030        -2.41934
H         35.21629        42.36942        -2.76590
O         39.99277        35.14332        -0.89639
H         39.45039        34.57302        -1.48192
O         35.57422        39.72558        -1.89048
H         36.47709        39.91724        -2.24322
O         34.08769        39.56275         1.43058
H         33.43127        38.88595         1.70974
O         39.96230        44.96856        -1.19551
H         40.80101        45.15215        -1.67822
O         43.22039        40.41208        -1.57867
H         42.37207        40.77861        -1.94669
O         33.43921        31.52655         0.87610
H         33.89353        31.29608         1.71383
O         49.33623        35.27646        -3.63890
H         49.70447        34.73503        -4.36664
O         39.79291        33.00159         3.03360
H         39.88284        33.91182         3.40442
O         39.44821        43.72026         2.17463
H         38.62674        43.48616         2.65580
O         40.57040        25.45599        -0.59638
H         40.39272        24.61279        -1.06171
O         36.71684        39.89548         1.62811
H         35.81822        39.66435         1.97108
O         48.86682        37.24813         1.39538
H         48.54548        36.65800         2.11359
O         48.23302        31.46398         1.41797
H         47.58268        31.68938         2.11883
O         50.58047        36.01607        -0.32047
H         50.19910        36.45077         0.48603
O         38.88893        46.23271         2.84024
H         39.65056        46.66322         3.29845
O         41.32289        47.72491         3.35642
H         41.35571        48.53428         3.90821
O         38.18652        40.03480        -1.71326
H         38.99052        40.52262        -1.99575
O         40.70204        31.68190        -0.24297
H         40.58476        30.79629        -0.64547
O         32.88744        42.01715         0.89379
H         32.16301        41.49514         1.29534
O         31.56150        37.72645         0.65253
H         30.61176        37.92985         0.78923
O         32.76740        30.52490        -3.65179
H         32.83611        31.44450        -3.99341
