         477
 CSIRO Nanostructure Databank - Neutral Graphene Oxide Data Set
C         28.50940        27.34914         0.95164
C         28.53959        28.74248         0.49679
C         27.31886        29.45465         0.11450
C         28.41759        31.64861         0.41305
C         27.29947        30.80827         0.01882
C         28.35748        33.09924         0.21437
C         27.20722        33.72505        -0.31446
C         28.34647        35.87100        -0.43703
C         27.19140        35.08061        -0.60642
C         28.33312        37.30203        -0.75412
C         27.42377        37.85382        -1.61732
C         28.23989        40.12069        -1.19026
C         27.33576        39.27447        -1.77442
C         28.07801        41.61515        -1.13697
C         26.88741        42.21993        -1.84254
C         27.92394        44.45218        -1.92939
C         26.80303        43.54466        -2.10850
C         27.87102        45.75632        -2.36739
C         30.79715        27.47885         1.82310
C         29.63689        26.74746         1.47328
C         30.64083        28.97203         1.99237
C         29.71634        29.59807         0.95294
C         30.63069        31.88364         1.55279
C         29.53824        31.06194         0.98154
C         30.67238        33.33942         1.16648
C         29.51094        33.90022         0.43595
C         30.78914        36.06336         0.08046
C         29.50985        35.26135         0.08425
C         30.55853        37.51729         0.46951
C         29.31578        38.17713        -0.07105
C         30.51201        40.39639        -0.23266
C         29.39110        39.61364        -0.45103
C         30.72610        41.67831        -1.03125
C         29.38636        42.30754        -1.48434
C         30.25794        44.52329        -0.91134
C         29.22209        43.79244        -1.60762
C         30.04772        46.61160        -1.58559
C         28.99679        46.66951        -2.45795
C         33.26232        24.80739         2.79212
C         32.06174        25.45632         2.53139
C         33.26355        27.54751         2.14553
C         32.03300        26.83498         2.19261
C         33.25726        28.99634         1.69000
C         31.96681        29.73430         2.08239
C         33.21233        31.90164         1.39860
C         31.93295        31.21737         1.91570
C         33.19491        33.43324         1.47344
C         31.97224        34.07166         1.14823
C         33.14462        36.18865         0.88329
C         31.95925        35.43477         0.80972
C         33.07513        37.62310         0.47382
C         31.78018        38.35549         0.65228
C         33.04318        40.59544         0.15906
C         31.75329        39.84423         0.35199
C         32.98780        42.05209        -0.03688
C         31.80224        42.64782        -0.44292
C         32.38948        45.22809        -0.24637
C         31.50364        44.08827        -0.51337
C         32.46209        46.44213        -0.92547
C         31.39512        47.17133        -1.60635
C         32.85746        49.13226        -1.84925
C         31.62871        48.45074        -2.09610
C         35.83579        23.25127         2.79668
C         35.77893        24.74725         3.01842
C         34.49032        25.46402         2.65045
C         35.73971        27.51646         1.97334
C         34.49626        26.85641         2.30566
C         35.84707        29.04170         2.12967
C         34.49949        29.77028         2.15539
C         35.72158        32.02824         1.82002
C         34.48258        31.26851         2.03610
C         35.68490        33.53647         2.02554
C         34.39240        34.18513         1.51828
C         35.60460        36.40325         1.17888
C         34.36087        35.58053         1.25985
C         35.58713        37.75395         0.59492
C         34.30370        38.44923         0.37325
C         35.55293        40.62279         0.30143
C         34.23696        39.93280         0.35410
C         35.53091        42.03192        -0.13220
C         34.30325        42.76019         0.37672
C         35.28613        44.79639        -0.79424
C         34.38560        44.20603         0.01906
C         35.11612        46.18885        -1.32429
C         33.83418        46.97296        -1.26268
C         35.18265        49.07479        -0.89996
C         33.94654        48.44865        -1.36462
C         35.16069        50.36021        -0.33105
C         38.28105        23.34514         2.56558
C         37.03047        22.61968         2.64490
C         38.24025        24.71905         2.37349
C         36.97357        25.38632         2.37675
C         38.08951        27.14085         1.18566
C         36.88828        26.69011         1.86524
C         37.95865        29.28053         0.73044
C         36.85055        29.86229         1.31505
C         38.07673        31.97858         1.11220
C         36.88940        31.31433         1.47274
C         38.15392        33.44228         1.08176
C         36.97319        34.22788         1.52777
C         38.02160        36.24424         0.29981
C         36.95036        35.68454         1.16120
C         37.93779        37.58601        -0.06826
C         36.76322        38.36212         0.20776
C         37.93326        40.48845        -0.64781
C         36.80872        39.84104         0.06602
C         37.86363        41.90166        -1.01098
C         36.60088        42.62259        -0.74572
C         37.65375        44.74438        -1.77288
C         36.44620        44.00714        -1.27691
C         37.68968        46.26323        -1.78239
C         36.39535        46.98725        -1.53226
C         37.59219        48.93402        -0.45898
C         36.40478        48.36023        -0.95667
C         37.52709        50.18261         0.19145
C         36.31074        50.87852         0.25218
C         40.52300        20.50297         1.76625
C         39.60054        21.18692         2.49630
C         40.66748        23.35447         1.76855
C         39.64232        22.67998         2.67071
C         40.66175        24.73074         1.61157
C         39.54610        25.51958         2.29526
C         40.58727        27.61734         1.22309
C         39.35310        26.79416         1.51525
C         40.41999        29.00314         0.60547
C         39.27589        29.80649         0.72280
C         40.41681        31.92698         0.22979
C         39.38827        31.26247         1.08841
C         40.31293        33.22883        -0.18581
C         39.18918        34.06597         0.21257
C         40.03306        35.87361        -1.28826
C         39.09593        35.39041        -0.17339
C         40.03926        37.37363        -1.51628
C         38.93928        38.23405        -0.95400
C         40.10958        40.29125        -1.78045
C         39.02348        39.72577        -1.01568
C         40.13538        41.75570        -2.22320
C         38.95295        42.52335        -1.60282
C         40.25515        44.72244        -1.74287
C         38.94760        43.98711        -1.85844
C         40.29544        46.20331        -1.46395
C         38.99373        46.98914        -1.47568
C         40.11211        48.82948         0.00005
C         38.92008        48.30307        -0.73187
C         40.00736        49.99438         0.69164
C         38.69133        50.69055         1.00605
C         39.95948        52.77532         1.47145
C         38.88233        52.19633         0.92595
C         42.56539        20.42886         0.31625
C         41.62216        21.15837         1.12080
C         42.84040        23.23789         0.60364
C         41.72163        22.58093         1.18001
C         42.85326        24.63515         0.43977
C         41.71765        25.39757         0.88349
C         42.80864        27.45082         0.03551
C         41.71420        26.79645         0.64202
C         42.76611        28.87984        -0.16145
C         41.64747        29.63161         0.21167
C         42.83342        31.75955        -0.47055
C         41.65027        31.11321         0.10654
C         42.71645        33.12777        -1.03509
C         41.42878        33.85888        -0.94559
C         42.58282        36.04104        -1.34818
C         41.43077        35.32929        -1.12708
C         42.55639        37.47741        -1.68351
C         41.31097        38.07025        -1.83889
C         43.01750        40.50429        -2.35105
C         41.08384        39.44352        -2.24770
C         42.83371        41.76198        -1.75751
C         41.54722        42.49470        -1.98521
C         42.66185        44.52805        -0.78494
C         41.56667        43.95756        -1.63250
C         42.58843        45.84246        -0.35487
C         41.52883        46.79286        -0.82648
C         42.50981        48.55429         0.77957
C         41.51056        48.26957        -0.33323
C         42.28320        49.73988         1.69669
C         41.26049        50.71977         1.12717
C         42.35027        52.58478         2.30731
C         41.02119        51.90157         2.09209
C         43.68889        21.02789        -0.16307
C         45.14668        23.11405        -0.42792
C         44.06403        22.39972         0.34177
C         45.14372        24.52795        -0.55865
C         43.99205        25.30029        -0.15652
C         45.17432        27.36055        -0.84777
C         43.98571        26.69948        -0.35015
C         45.18944        28.78910        -1.02834
C         43.84446        29.48583        -1.05055
C         45.25540        31.67766        -0.84274
C         43.95649        30.96499        -0.93062
C         45.15527        33.16355        -1.15614
C         43.98894        33.86745        -1.11992
C         45.17766        36.11054        -1.14798
C         43.89500        35.35042        -1.09156
C         45.11522        37.43230        -1.91342
C         43.88446        38.26268        -1.50303
C         45.37346        40.39142        -1.80808
C         44.08916        39.65622        -2.06625
C         45.14471        41.61613        -0.95430
C         43.94675        42.34112        -1.04297
C         44.95799        44.26761         0.09313
C         43.84033        43.69998        -0.50117
C         44.86179        45.55292         0.79515
C         43.59617        46.35400         0.58993
C         44.59933        48.16943         2.10617
C         43.57892        47.76782         1.03505
C         44.68219        49.67865         2.27658
C         43.56083        50.44714         2.07700
C         43.50532        51.88176         2.31430
C         47.38724        23.02105        -1.35840
C         46.25752        22.38277        -0.85013
C         47.45182        24.42113        -1.43200
C         46.30807        25.18970        -1.06371
C         47.55344        27.29509        -1.58987
C         46.34153        26.62370        -1.15890
C         47.58677        28.75414        -1.66520
C         46.35065        29.45941        -1.38948
C         47.54997        31.69047        -2.02962
C         46.33387        30.93878        -1.59814
C         47.62636        33.21947        -1.94998
C         46.45938        33.84987        -1.19451
C         47.67531        35.99269        -1.67204
C         46.46632        35.34091        -1.13923
C         47.57269        37.29930        -2.02878
C         46.43882        38.17569        -1.79067
C         47.80799        40.22940        -1.07500
C         46.57619        39.51741        -1.49652
C         47.66714        41.49765        -0.53202
C         46.34133        42.13231        -0.28624
C         47.50649        44.37613         0.31104
C         46.23850        43.54468         0.23815
C         47.34749        45.64383         1.12588
C         46.07972        46.25523         1.27983
C         47.14159        48.18460         2.33216
C         45.96885        47.52500         1.88399
C         47.04606        49.51842         2.88394
C         45.89814        50.23947         2.80617
C         49.86381        24.38916        -2.03411
C         48.68409        25.10021        -1.80949
C         49.95437        27.18987        -2.30625
C         48.69382        26.53451        -1.89626
C         49.98508        28.71425        -2.32403
C         48.76029        29.45192        -1.97187
C         50.07948        31.65134        -1.78035
C         48.84266        30.94526        -2.32228
C         50.11224        33.02716        -1.47778
C         48.94310        33.80057        -1.48303
C         50.23675        35.96520        -0.94992
C         48.94546        35.27749        -1.31376
C         50.46298        37.45791        -1.11245
C         49.44025        38.32932        -1.55518
C         50.15443        40.08216        -0.11354
C         49.15040        39.58178        -0.98043
C         49.91355        41.35867         0.57671
C         48.91170        42.27500        -0.09414
C         49.69732        44.09205         1.64732
C         48.66066        43.51024         0.72501
C         49.83641        45.60232         1.38650
C         48.50141        46.28184         1.60192
C         49.64049        48.21051         2.60585
C         48.41733        47.56134         2.19382
C         51.11936        25.03925        -2.14350
C         52.48730        27.10415        -1.90519
C         51.21000        26.40786        -2.21357
C         52.46724        28.58811        -1.65346
C         51.30606        29.41919        -2.11696
C         52.49784        31.46234        -1.06315
C         51.34883        30.89985        -1.82746
C         52.49742        32.76971        -0.70119
C         51.49383        33.71724        -1.34918
C         52.16264        35.31099         0.46452
C         51.39161        35.04956        -0.63719
C         52.91056        37.51433        -0.52830
C         51.55528        38.11010        -0.50248
C         52.48804        40.00228         0.81138
C         51.39780        39.41607         0.02597
C         52.32253        41.21901         1.42959
C         51.04534        41.95448         1.36656
C         52.20603        44.05913         2.01447
C         51.04243        43.40223         1.60943
C         52.18184        45.49601         2.29097
C         50.99659        46.22190         2.13279
C         50.85325        47.57554         2.57003
C         54.95195        27.21017        -1.96338
C         53.80886        26.50196        -2.15214
C         54.93869        28.59377        -1.51995
C         53.75516        29.28592        -1.47792
C         54.97108        31.42989        -0.94747
C         53.69512        30.59112        -0.71210
C         54.93104        32.72831        -0.15993
C         53.56680        33.21449         0.29096
C         54.76449        35.53196         0.80162
C         53.49598        34.69392         0.67086
C         54.81889        37.02410         1.01849
C         53.82457        37.91378         0.56179
C         54.74792        39.74600         1.88797
C         53.70024        39.22258         1.07625
C         54.69934        41.13283         2.29184
C         53.35304        41.80673         2.35484
C         54.57456        43.96712         2.71898
C         53.40566        43.31598         2.27972
C         54.55000        45.39531         2.91805
C         53.40022        46.11031         2.75554
C         56.17391        29.26202        -1.10352
C         56.20386        30.56910        -0.77076
C         56.04039        33.56738        -0.09019
C         56.00899        34.87494         0.39863
C         55.81499        37.54119         1.87062
C         55.81867        38.88590         2.23215
C         55.82607        41.84969         2.68624
C         55.76169        43.22550         2.94958
O         44.49963        35.98628         0.13055
O         33.28573        31.59449         0.03043
O         49.87396        41.27890         2.03096
O         36.52056        36.43284         2.33362
O         34.33413        30.60288         3.33835
O         42.00255        39.96695        -3.14901
O         43.76216        45.49590         1.79243
O         34.27029        46.27277        -2.51694
O         51.69240        30.34593        -3.16763
O         46.16573        42.43105         1.17098
O         38.08685        34.00937         2.47868
O         31.97183        30.61588         3.24524
O         38.89973        37.73816        -2.36092
O         31.68377        39.31147         1.73330
O         41.91558        43.51080        -2.98930
O         41.35342        46.78129        -2.28421
O         37.83060        28.02805         0.13981
O         52.24437        27.66899        -0.53567
O         36.50051        40.41743         1.40604
O         46.75147        34.54033         0.05254
O         30.24727        32.90673         2.52041
O         49.88042        27.95989        -3.57467
O         29.47186        37.81694         1.35923
O         29.86906        45.77991        -0.45159
O         36.95357        46.86392        -2.87839
O         54.05493        34.91294         2.00705
O         48.67693        37.90331        -2.63669
O         39.15768        48.23763        -2.19526
O         33.65634        37.85953        -0.85538
O         33.43898        45.01398         0.66012
O         49.22482        35.73346         0.09821
O         46.49528        31.31715        -2.99971
O         42.69846        31.71281         1.03013
O         39.66224        44.44061        -3.05288
O         53.30566        36.81147        -1.45739
O         41.82906        33.16826        -2.19885
O         29.72450        29.01068        -0.36534
O         36.70216        44.15715        -2.70993
O         29.58323        42.92602        -2.77345
O         47.49583        33.70314        -3.32088
H         48.03005        33.11010        -3.89573
O         39.91093        41.76998        -3.63655
H         39.99579        42.70719        -3.93571
O         31.35469        41.18679        -2.25045
H         31.14254        41.83002        -2.96671
O         29.95018        29.11542         3.26250
H         30.43906        29.81283         3.77061
O         45.77187        40.97195        -3.12436
H         45.00901        41.48985        -3.46453
O         44.67015        22.16236         1.67351
H         44.00147        21.68841         2.21293
O         51.83876        36.27260         1.36982
H         52.50153        36.22241         2.09799
O         44.06412        47.66242         3.37474
H         43.94296        46.68730         3.24475
O         40.54630        51.46224         3.39309
H         41.05451        50.64261         3.62710
O         39.51503        35.25049        -2.49342
H         38.92156        35.91057        -2.92245
O         45.66690        31.60796         0.56407
H         44.89425        31.86707         1.11699
O         49.57191        42.71489        -1.33050
H         48.96974        43.37715        -1.74744
O         51.93397        33.94348        -2.70999
H         52.06227        33.07340        -3.14518
O         49.19591        43.93466         3.01500
H         49.03213        42.97154         3.14125
O         49.00197        30.99417        -3.77226
H         48.18425        30.60557        -4.15667
O         53.21638        32.55078         1.55682
H         53.70121        33.04144         2.26303
O         44.94627        37.03773        -3.29524
H         44.99492        37.84111        -3.85587
O         39.88603        31.28253         2.47198
H         39.87371        32.21531         2.77938
O         38.33202        50.34389         2.37350
H         39.00880        50.76461         2.97038
O         39.95007        25.77662         3.65994
H         40.10618        24.89532         4.07990
O         54.92114        31.82294        -2.35514
H         55.72197        32.35166        -2.55430
O         27.92053        41.94180         0.28720
H         27.20323        41.38204         0.65237
O         36.40776        29.13178         3.47482
H         35.88078        29.82024         3.95436
O         47.77742        44.81485        -1.07293
H         48.62263        45.33510        -1.01631
O         34.36595        42.66943         1.82578
H         33.70782        43.30374         2.18346
O         53.63319        30.12269         0.64701
H         53.40361        30.88391         1.23806
O         41.74089        49.15294         2.92464
H         42.46279        48.58566         3.31269
O         50.16192        45.73862        -0.04357
H         50.49665        46.64971        -0.18588
O         40.08980        22.94801         4.05943
H         40.95814        22.50678         4.17767
O         52.84724        41.51765         3.72124
H         51.91105        41.81275         3.75431
O         43.93659        38.53213        -0.07424
H         44.07262        37.66554         0.39180
O         41.09639        28.00486         2.54713
H         40.38038        28.47519         3.02649
O         33.29366        28.95550         0.24927
H         33.29123        29.91558        -0.07635
O         35.90929        24.92894         4.47772
H         36.82243        24.66555         4.72310
O         41.82620        51.35024        -0.04439
H         41.93716        50.66224        -0.75075
O         35.64523        33.72342         3.46638
H         36.57908        33.79019         3.77223
O         43.32570        29.22812        -2.42281
H         43.93422        29.66889        -3.05544
O         41.99276        49.05316        -1.46184
H         41.50227        48.71871        -2.25395
O         31.20824        36.14261        -1.31818
H         31.54199        35.26375        -1.59648
H         27.59598        26.75821         0.78717
H         26.40474        28.87110        -0.07014
H         26.36610        31.28950        -0.30152
H         26.28842        33.14878        -0.48238
H         26.26418        35.53864        -0.97754
H         26.70129        37.22214        -2.15189
H         26.50032        39.67629        -2.36400
H         26.00364        41.58745        -2.01266
H         25.87316        43.95698        -2.53022
H         26.91945        46.10304        -2.80426
H         29.62520        25.65600         1.61220
H         29.00638        47.38975        -3.28902
H         33.23674        23.75324         3.10033
H         31.12250        24.89698         2.63434
H         32.90607        50.21631        -2.02480
H         30.79075        49.01206        -2.53390
H         34.92221        22.65030         2.91297
H         34.21651        50.92018        -0.28346
H         37.04944        21.52174         2.58454
H         36.26117        51.84106         0.77895
H         40.45290        19.40737         1.68736
H         38.82815        20.62788         3.04348
H         40.09742        53.86718         1.44178
H         38.10492        52.81117         0.44756
H         42.34003        19.38067         0.06773
H         42.36546        53.66548         2.51632
H         44.39102        20.45998        -0.78981
H         44.44815        52.41236         2.51273
H         48.24315        22.40390        -1.65989
H         46.26913        21.28963        -0.74238
H         47.93512        49.98895         3.32107
H         45.89460        51.27723         3.16553
H         49.86582        23.29243        -1.99727
H         49.60689        49.23479         2.99719
H         52.03123        24.42643        -2.10867
H         51.72906        48.10945         2.96433
H         55.92575        26.73064        -2.14391
H         53.85423        25.47587        -2.54532
H         55.47231        45.89659         3.24557
H         53.41687        47.19125         2.94949
H         57.08900        28.65339        -1.03897
H         57.15055        31.03888        -0.46150
H         57.00785        33.18653        -0.45544
H         56.92183        35.48406         0.34560
H         56.60252        36.87609         2.25200
H         56.62809        39.26136         2.87364
H         56.80290        41.34712         2.74128
H         56.66817        43.75886         3.26939
