         334
 CSIRO Nanostructure Databank - Neutral Graphene Oxide Data Set
C         30.49875        57.02535         0.82048
C         30.49681        58.42990         1.14222
C         29.33738        59.07025         1.60744
C         30.52995        61.16972         1.87980
C         29.36065        60.43122         1.96122
C         32.87368        52.88079        -0.28910
C         32.83036        54.30814        -0.24322
C         31.66756        54.98054         0.08435
C         32.80985        57.21095        -0.00692
C         31.60975        56.39838         0.29433
C         32.90206        58.56576         0.56801
C         31.71278        59.18104         1.04614
C         32.95217        61.27492         1.35072
C         31.73809        60.56065         1.43112
C         35.35321        48.58501        -0.59875
C         35.31740        50.07574        -0.31418
C         34.13508        50.76686        -0.44862
C         35.33946        52.92947        -0.20840
C         34.08352        52.19601        -0.35040
C         35.33840        54.30678        -0.23269
C         34.09219        55.02130        -0.71019
C         35.34934        57.23552        -0.18513
C         34.08600        56.52871        -0.44570
C         35.36328        58.56981         0.23562
C         34.12356        59.25237         0.56455
C         35.38130        61.33806         0.96459
C         34.15384        60.63980         0.96145
C         37.75636        44.28164        -0.39148
C         37.73010        45.71771        -0.20932
C         36.52716        46.39625        -0.09487
C         37.78818        48.56758         0.06536
C         36.45982        47.86328         0.19999
C         37.76493        50.00724         0.26230
C         36.53611        50.78440        -0.00460
C         37.83245        52.91755        -0.06960
C         36.57023        52.17914        -0.00226
C         37.83274        54.30533        -0.15631
C         36.57885        55.08207         0.12427
C         37.87824        57.19869        -0.15479
C         36.60194        56.48616        -0.52855
C         37.85277        58.57001         0.26136
C         36.60904        59.25949         0.42643
C         37.82803        61.33754         0.98420
C         36.62187        60.66439         0.77392
C         40.20570        40.01812        -0.06866
C         40.20004        41.41251        -0.22052
C         38.97755        42.13070        -0.36444
C         40.21451        44.27694        -0.03119
C         38.93561        43.53759        -0.35150
C         40.19234        45.68697        -0.63172
C         38.97397        46.45275        -0.17466
C         40.28156        48.57942        -0.25598
C         39.00236        47.85868        -0.07022
C         40.31101        50.01295        -0.23268
C         39.12150        50.77696         0.11777
C         40.31071        52.89167        -0.32810
C         39.07673        52.20347        -0.17867
C         40.34207        54.30689        -0.35954
C         39.06218        55.04192        -0.64747
C         40.31852        57.14983         0.01155
C         39.07961        56.49159        -0.21510
C         40.30763        58.55273         0.32757
C         39.07541        59.22832         0.52236
C         40.32024        61.37917         0.71310
C         39.11474        60.59728         1.15253
C         42.57137        35.72350         0.91806
C         42.59259        37.22104         0.65306
C         41.41544        37.89765         0.36282
C         42.66777        39.98272         0.00975
C         41.41560        39.29798         0.10890
C         42.69202        41.39963        -0.26105
C         41.47113        42.11883        -0.27898
C         42.68747        44.20510        -0.65580
C         41.48434        43.53305        -0.38901
C         42.69284        45.67216        -1.04157
C         41.52663        46.39375        -0.32997
C         42.71390        48.59544        -0.77736
C         41.44857        47.88378        -0.56190
C         42.76282        50.04088        -0.51099
C         41.53122        50.73418        -0.39983
C         42.78486        52.85181        -0.27096
C         41.54597        52.16097        -0.32124
C         42.79736        54.28599        -0.18859
C         41.56209        54.99902        -0.24982
C         42.78614        57.11261         0.02014
C         41.56014        56.43754        -0.09893
C         42.78434        58.54539         0.36114
C         41.52408        59.27510         0.42873
C         42.74045        61.43449         0.17452
C         41.52349        60.72007         0.45921
C         45.23652        33.20277        -0.27441
C         43.96287        33.84402        -0.09814
C         45.10148        35.70294         0.99738
C         43.87428        35.05002         0.53944
C         45.06722        37.26157         1.09676
C         43.82172        37.93883         0.67466
C         45.20814        39.91548        -0.03422
C         43.86554        39.27946         0.26129
C         45.18723        41.42375        -0.16521
C         43.93159        42.10175        -0.40173
C         45.17764        44.20364        -0.92323
C         43.90783        43.49105        -0.66754
C         45.19463        45.68561        -0.88889
C         44.02158        46.36077        -0.80636
C         45.27675        48.53451        -0.59333
C         44.00552        47.84082        -0.88182
C         45.27601        49.96431        -0.10569
C         43.98867        50.72144        -0.36843
C         45.30036        52.81200         0.08771
C         44.00089        52.11728        -0.23752
C         45.28737        54.30155        -0.15487
C         44.03959        54.99102        -0.13468
C         45.26434        57.13378        -0.14283
C         44.02520        56.42034        -0.10643
C         45.20885        58.61386        -0.44852
C         44.05598        59.32915         0.21113
C         45.17294        61.47231        -0.30951
C         43.97644        60.79672         0.00090
C         46.40650        33.78466         0.13759
C         47.57201        35.82582         0.94280
C         46.41260        35.09842         0.72487
C         47.55483        37.25811         1.11117
C         46.33674        37.95419         1.01588
C         47.60123        40.11526         0.71516
C         46.27109        39.45446         0.96247
C         47.62135        41.45590         0.32485
C         46.38815        42.10750        -0.10085
C         47.69360        44.30186        -0.32284
C         46.47449        43.49587        -0.58961
C         47.71811        45.68342        -0.54409
C         46.51119        46.40557        -1.09683
C         47.71149        48.58762        -0.64824
C         46.45431        47.85468        -0.68027
C         47.70958        49.96818        -0.78545
C         46.50227        50.73126        -0.57083
C         47.69793        52.90197        -0.82620
C         46.49345        52.10390        -0.50765
C         47.76979        54.34390        -0.44164
C         46.49710        55.01667        -0.18884
C         47.76956        57.18529         0.10312
C         46.47395        56.44877        -0.15825
C         47.67677        58.66287        -0.18711
C         46.50375        59.34576        -0.23541
C         47.62834        61.54440        -0.25866
C         46.45085        60.81939        -0.30809
C         48.77634        37.99308         1.17585
C         50.02817        40.12301         0.99656
C         48.81416        39.40237         0.99483
C         50.05254        41.51511         0.74333
C         48.84580        42.19716         0.36350
C         50.08485        44.32797         0.27456
C         48.87143        43.60410         0.10909
C         50.11391        45.73995         0.07451
C         48.91860        46.43088        -0.32089
C         50.14739        48.57821        -0.26953
C         48.95413        47.85161        -0.48946
C         50.17059        50.01053        -0.43846
C         49.01244        50.62989        -1.18336
C         50.22497        52.87878        -0.80664
C         48.97902        52.15033        -1.10233
C         50.20868        54.35231        -1.12666
C         48.95304        55.04943        -0.58962
C         50.17137        57.21097        -0.65166
C         49.01438        56.49963        -0.44411
C         50.18967        58.70291        -0.70355
C         48.92645        59.43168        -0.41268
C         50.18935        61.58095        -0.14101
C         48.90967        60.84521         0.11489
C         51.25823        42.25102         0.86167
C         52.48964        44.38627         0.82912
C         51.28484        43.63780         0.65713
C         52.51054        45.75852         0.67042
C         51.32301        46.45561         0.29428
C         52.45189        48.63136         0.57884
C         51.33963        47.89670         0.17375
C         52.38643        50.09360         0.60955
C         51.25258        50.77231        -0.04335
C         52.54796        52.93717        -0.01647
C         51.31426        52.21576        -0.26806
C         52.57880        54.36492        -0.25764
C         51.46122        55.05987        -0.69806
C         52.67295        57.23791        -0.34055
C         51.49408        56.53983        -0.98501
C         52.67405        58.67890        -0.13217
C         51.52019        59.47203        -0.70900
C         52.54289        61.52046         0.36186
C         51.40568        60.88246        -0.13448
C         53.81477        46.51065         0.79265
C         54.91293        48.73908         1.07465
C         53.63093        47.96363         1.25365
C         54.94365        50.10181         0.91581
C         53.67313        50.86741         0.82301
C         54.96751        52.96252         0.46189
C         53.72071        52.27898         0.38760
C         55.00461        54.36616         0.27834
C         53.81810        55.07344        -0.02520
C         55.09917        57.26145         0.05306
C         53.81057        56.50192        -0.06042
C         54.97203        58.56057         0.87606
C         53.72499        59.31287         0.47454
C         54.97639        61.44363         0.39321
C         53.72323        60.76565         0.87698
C         56.16717        50.84169         0.88273
C         57.42512        52.94578         0.83681
C         56.19367        52.23432         0.74613
C         57.48530        54.34275         0.76384
C         56.24698        55.08838         0.52706
C         57.47870        57.20521         1.01035
C         56.26592        56.45350         0.52460
C         57.45156        58.65623         0.59529
C         56.24291        59.33859         0.59027
C         57.39580        61.39681        -0.09186
C         56.18505        60.73929         0.24995
C         58.71374        55.05351         0.76644
C         59.92320        57.18695         0.45952
C         58.75760        56.46545         0.70258
C         59.90745        58.60401         0.24142
C         58.66583        59.32182         0.26530
C         59.85593        61.37348        -0.38686
C         58.63042        60.71348        -0.07414
C         61.08888        59.30421        -0.07129
C         61.05395        60.67512        -0.37276
O         49.34282        59.24719        -1.80891
O         43.34924        48.29409        -2.14719
O         45.99025        43.60944        -1.99428
O         46.67310        46.51581        -2.62018
O         38.52790        50.45020         1.43103
O         43.70813        58.85629         1.52790
O         33.21555        57.20626        -1.43516
O         44.94303        36.38739         2.26960
O         48.18995        52.69926        -2.22667
O         52.75746        50.65010         1.95586
O         41.86481        46.28746         1.07821
H         41.04623        46.39963         1.60738
O         36.57845        56.26756        -1.97411
H         36.28334        57.09511        -2.40856
O         53.67923        60.82223         2.34646
H         54.08818        59.98595         2.68139
O         35.55310        48.38662        -2.00361
H         36.40325        48.79711        -2.26355
O         39.27087        60.36584         2.62569
H         40.11818        59.88589         2.75013
O         47.60904        45.52326        -3.07371
H         47.07743        44.68041        -3.01414
O         34.08599        54.85579        -2.16212
H         33.49151        55.56073        -2.50962
O         44.93174        58.71064        -1.88274
H         45.72812        58.40959        -2.36932
O         47.95581        57.09977         1.56120
H         47.22552        57.59639         1.98872
O         36.05204        48.01773         1.60461
H         36.78775        47.69491         2.16667
O         41.45972        35.11312         0.26695
H         41.53476        35.27738        -0.69499
O         45.47311        52.66561         1.56058
H         44.74374        53.16311         1.99001
O         54.87248        58.28502         2.29655
H         55.75755        57.94751         2.60196
O         48.86092        60.68623         1.58586
H         48.84725        61.58256         1.98343
O         51.88951        59.67739        -2.09992
H         51.04826        59.73972        -2.60875
O         50.13086        54.48857        -2.59435
H         49.34661        53.94887        -2.87339
O         45.61763        39.40295        -1.33693
H         45.07179        39.84213        -2.02253
O         57.37714        57.21440         2.49419
H         57.48533        56.28602         2.79565
O         45.38073        49.87598         1.35316
H         45.46092        50.80603         1.68909
O         54.46850        46.49592        -0.49024
H         53.82586        46.79145        -1.16769
O         38.96629        55.02222        -2.11649
H         38.08764        55.41948        -2.35347
O         39.97059        45.56281        -2.05562
H         40.84622        45.46778        -2.51331
O         51.69408        56.69643        -2.42891
H         51.11639        56.02151        -2.86548
O         45.81505        39.90954         2.27659
H         46.38962        39.49658         2.95506
O         49.23644        50.29880        -2.58557
H         48.61707        50.85670        -3.10733
O         36.52878        55.36151         1.56435
H         36.60474        54.50643         2.03903
O         53.32301        47.93542         2.67972
H         53.12438        48.86772         2.93487
O         40.20410        44.40209         1.42654
H         40.23282        43.49470         1.79748
O         55.42889        57.67125        -1.31558
H         54.59292        57.91803        -1.76903
O         42.53600        45.73329        -2.48942
H         42.77392        46.66243        -2.75446
H         29.59081        56.43843         1.02665
H         28.40106        58.50029         1.69175
H         30.53876        62.23055         2.16816
H         28.43657        60.91026         2.31441
H         31.93440        52.31447        -0.19257
H         30.75781        54.39495         0.29280
H         32.97435        62.33768         1.63458
H         34.36499        48.12908        -0.34417
H         33.20359        50.21840        -0.65440
H         35.39155        62.40283         1.24204
H         36.79337        43.76054        -0.50948
H         35.57858        45.84158        -0.15513
H         37.80709        62.40982         1.23232
H         39.24963        39.47498        -0.03248
H         38.03970        41.56098        -0.45355
H         40.28752        62.47865         0.72643
H         42.42635        35.56594         2.02307
H         40.46333        37.34694         0.35441
H         42.68635        62.52971         0.08163
H         45.26000        32.21433        -0.75428
H         43.04990        33.33202        -0.43466
H         45.15129        62.56773        -0.41613
H         47.36702        33.27349        -0.02141
H         48.54668        35.33865         0.78760
H         47.59583        62.64509        -0.24970
H         49.72338        37.44649         1.29456
H         50.96969        39.60081         1.22145
H         50.21085        62.64206         0.16546
H         52.18114        41.72792         1.15244
H         53.41074        43.85319         1.10774
H         52.46043        62.57548         0.67137
H         54.49388        45.98662         1.50847
H         55.86099        48.18759         1.16259
H         54.95105        62.52105         0.16981
H         57.11147        50.29844         1.03654
H         58.35239        52.37340         0.99037
H         57.37413        62.46797        -0.34253
H         59.65487        54.48442         0.71708
H         60.87739        56.64956         0.34377
H         59.83983        62.44346        -0.63898
H         62.04719        58.76544        -0.08845
H         61.99116        61.19681        -0.61305
