         272
 CSIRO Nanostructure Databank - Neutral Graphene Oxide Data Set
C         -9.53923         1.02548         2.47017
C         -8.73804         1.60843         1.33295
C         -8.45364         0.64939         0.18736
C         -7.60002         1.26050        -0.88064
C         -6.36539         0.45572        -1.23865
C         -5.02576         1.19576        -1.13458
C         -3.92936         0.55607        -0.30632
C         -2.65062         1.33913        -0.03305
C         -1.36428         0.60584         0.27502
C         -0.09158         1.37271        -0.04292
C          1.19917         0.69405        -0.41805
C          2.49043         1.54960        -0.59088
C          3.80055         0.73720        -0.43464
C          4.98349         1.35836         0.29187
C          6.28892         0.63824         0.24780
C          7.57644         1.37520         0.33481
C          8.75932         0.70457         0.39057
C         10.01117         1.43066         0.60610
C         11.18444         0.62063         0.93049
C         -9.13073         2.97851         0.85660
C         -8.45028         3.60470        -0.15418
C         -7.67587         2.77575        -1.21795
C         -6.32584         3.30903        -1.76762
C         -4.99192         2.68719        -1.34258
C         -3.76766         3.52956        -0.91629
C         -2.54405         2.81205        -0.41511
C         -1.38650         3.58567         0.21089
C         -0.09041         2.82977         0.37809
C          1.22820         3.57108         0.43698
C          2.50253         2.72433         0.39968
C          3.75976         3.55652         0.14479
C          5.02767         2.85027         0.50263
C          6.32166         3.59562         0.43126
C          7.58290         2.86055         0.02380
C          8.83281         3.60644         0.45448
C         10.03511         2.80789         0.62403
C         -8.67954         5.02552        -0.37665
C         -7.58495         5.89128        -0.61272
C         -6.27599         5.25240        -0.36396
C         -5.07080         5.78671        -1.05859
C         -3.84520         5.02315        -0.65007
C         -2.60016         5.80136        -0.38376
C         -1.34577         5.09820         0.06910
C         -0.04705         5.85121         0.14554
C          1.23767         5.06905         0.27701
C          2.49419         5.80144        -0.07930
C          3.77838         5.03608         0.02000
C          5.01904         5.76840         0.43656
C          6.33230         5.07931         0.08204
C          7.55779         5.78958         0.81968
C          8.82465         4.96541         0.60217
C         -7.59496         7.25926        -0.86315
C         -6.36261         8.08364        -1.20895
C         -5.05391         7.26809        -1.26491
C         -3.73950         8.00138        -1.16763
C         -2.47263         7.21169        -0.91595
C         -1.19567         7.97898        -0.68856
C          0.02720         7.30516        -0.18267
C          1.18272         8.01640        -0.01834
C          2.48059         7.28781         0.02027
C          3.71586         8.02677         0.42675
C          4.99262         7.24757         0.61185
C          6.32742         8.05364         0.70687
C          7.48625         7.18806         0.27522
C         -6.20137         9.33318        -0.36572
C         -5.03358         9.98899        -0.25157
C         -3.74647         9.45777        -0.76631
C         -2.46871        10.10319        -0.40443
C         -1.24262         9.46045        -0.52745
C         -0.00332        10.14687        -0.40195
C          1.23860         9.46434        -0.25832
C          2.47120        10.12008        -0.33223
C          3.73623         9.49150         0.10405
C          5.07011        10.04530        -0.23711
C          6.21890         9.36857        -0.04652
C         -9.50195        -0.28713         2.75382
C         -8.99735        -1.29776         1.78521
C         -8.43680        -0.84048         0.46993
C         -7.68725        -1.75514        -0.56212
C         -6.35987        -1.04022        -1.04635
C         -4.96836        -1.71423        -0.97774
C         -3.91332        -0.93896        -0.16527
C         -2.59428        -1.67833         0.06147
C         -1.28485        -0.91713         0.43367
C          0.03177        -1.58963        -0.12532
C          1.30022        -0.80503        -0.32047
C          2.53970        -1.49820        -0.81072
C          3.82109        -0.74650        -0.65172
C          4.99956        -1.55885        -0.09693
C          6.30833        -0.77852        -0.23093
C          7.59926        -1.51631        -0.14503
C          8.91551        -0.77596         0.07606
C          9.81454        -1.47256         1.09929
C         11.12256        -0.70948         1.17141
C         -8.83118        -2.72468         2.16844
C         -8.14015        -3.53111         1.34345
C         -7.50789        -3.18316         0.01351
C         -6.14163        -3.80987        -0.08206
C         -5.00653        -3.15106        -0.54052
C         -3.78929        -3.84811        -0.63475
C         -2.52795        -3.07587        -0.46758
C         -1.29176        -3.63704        -1.08674
C         -0.01745        -2.87425        -0.93332
C          1.28401        -3.58394        -1.23498
C          2.55705        -2.85464        -0.96035
C          3.84199        -3.59657        -1.16568
C          5.12161        -2.89844        -0.80933
C          6.39591        -3.68121        -0.55172
C          7.52206        -2.99540         0.22235
C          8.92179        -3.68486        -0.00207
C          9.92774        -2.95179         0.85084
C         -8.41901        -4.91553         0.79647
C         -7.21189        -5.81022         0.88206
C         -6.01062        -5.14155         0.38508
C         -4.77516        -5.82360         0.33713
C         -3.66716        -5.20384        -0.28984
C         -2.34002        -5.89567        -0.57412
C         -1.40174        -5.10431        -1.54550
C         -0.02798        -5.85288        -1.61960
C          1.26512        -5.06709        -1.48684
C          2.49717        -5.83721        -1.08973
C          3.80113        -5.09184        -0.97949
C          5.10412        -5.94369        -0.97348
C          6.37816        -5.17539        -0.56444
C          7.50939        -5.90343         0.08636
C          8.82873        -5.19068         0.39951
C         -7.20201        -7.09594         1.30290
C         -5.91929        -7.87192         1.50127
C         -4.67270        -7.07362         1.13211
C         -3.84637        -8.09464        -0.91527
C         -2.56045        -7.32219        -1.12452
C         -1.32584        -8.11262        -1.40033
C          0.00013        -7.36557        -1.54830
C          1.27176        -8.22931        -1.37460
C          2.61089        -7.36362        -1.32416
C          3.51407        -7.89864        -0.17589
C          4.84490        -7.13519        -0.05076
C          6.01426        -7.81767         0.57076
C          7.35627        -7.18822         0.48579
C         -5.95261        -9.27931         0.90488
C         -4.97891        -9.97933         0.28393
C         -3.73551        -9.43835        -0.28978
C         -2.57113       -10.12457        -0.38842
C         -1.28514        -9.59243        -0.99594
C         -0.13539        -9.82992        -0.04322
C          1.11899        -9.27649        -0.24172
C          2.26951        -9.91870         0.26248
C          3.61916        -9.44341        -0.21675
C          4.78745        -9.97541         0.58123
C          5.86647        -9.25262         0.92008
O          1.34622         4.45406         1.59852
O          5.39171        -6.45566        -2.27426
H          5.68640        -5.70553        -2.83572
O         -6.51864        -0.42802        -2.37128
O          5.72681         3.27340         1.70787
O          9.63802        -0.79793        -1.17326
H          8.97628        -0.84749        -1.89887
O         -8.52626        -1.88897        -1.69832
H         -8.88523        -0.99667        -1.91813
O          6.85244        -4.39170        -1.73406
O          0.24015         1.12569        -1.44358
O          2.76466        -7.68504         1.04645
H          3.38725        -7.27523         1.69855
O         -3.60022        -7.42677         1.64665
O          4.19234         0.16463        -1.72874
O          0.04974        -6.66412        -2.82485
O          2.47657         2.11380        -1.89570
H          2.78331         1.42790        -2.53016
O         -4.91167        -7.68413        -1.35644
O          1.39278        -4.13772        -2.59620
O          9.14372        -1.34745         2.41122
H          9.79706        -1.55917         3.11204
O         -2.59566        -2.82188         0.99376
O         -4.45093        -0.11134         0.88977
O         -5.13831         6.33117        -2.39475
O          5.45577         0.66471         1.48730
O         -8.94771         0.76762        -1.17216
O         -8.41100        -4.26452        -0.54782
O          3.91778         4.18685        -1.16867
O         -3.56713         5.53920         0.69615
O         -2.19523         1.14504         1.32411
O          2.98572        -5.37279         0.20677
O         -0.83326        -2.71187        -2.12742
O          4.73370        -1.88106         1.27472
H          4.80687        -1.05090         1.80658
O         -2.19392        -7.69596        -2.49559
O          2.56331         6.59884        -1.29870
O          3.57709         8.98354         1.51393
O          1.00386        -1.48470         0.95156
O          7.03530        -1.12491        -1.44095
O         -6.13879         4.36755         0.48546
O          3.22204        -7.52355        -2.59105
H          2.60613        -8.10550        -3.12068
O         -5.80522        -8.10357         2.93548
H         -4.84699        -8.23854         3.11739
O         -4.59765         1.74757        -2.39713
O         -1.52871         7.37641        -2.00802
O          4.68985        -2.99532        -2.18824
O         -0.94107         3.13889         1.50661
O         -1.98608        -5.05972        -2.83513
H         -1.64068        -5.82890        -3.34960
O          5.13268        -6.88366         1.35302
O         -2.65353         3.18762        -1.80990
O         -6.35737         4.06603        -2.72081
H         -8.15652         3.52352        -2.98284
O         -3.68139         9.02478        -2.18724
O          9.30457        -3.54817        -1.37670
H          8.55451        -3.86912        -1.93440
O          6.52931         5.25616        -1.32307
H          5.88947         4.68113        -1.80280
O          9.01724        -5.28495         1.82126
H          8.24056        -4.84869         2.24075
O          4.87136         6.34007         1.76341
O          6.46952         8.38286         2.11453
H          5.59935         8.72793         2.42039
O          7.19124        -3.11701         1.61735
H          7.75086        -2.47666         2.13033
O         -5.12107        -2.61489        -3.14946
H         -5.85134        -2.04573        -3.50298
O         -4.36910        -1.68858        -2.33099
O         -0.90589         5.70288         1.32417
O         -8.55059         2.86639        -2.36116
O         -1.57199        -6.02411         0.64211
H         -2.15706        -6.45858         1.31876
O          7.36015         5.73832         2.22520
H          6.90121         6.56394         2.51746
O         -1.16710        -1.03204         1.85979
H         -1.35862        -1.96260         2.11240
O         -9.84123        -1.25479         0.55849
O         -7.37779         1.76670         1.89539
H         -7.39297         2.49869         2.54845
O          1.34574        -9.07809        -2.49813
O          7.56489         2.87689        -1.44021
H          8.42225         2.52174        -1.75799
O         -6.60784         8.55178        -2.56066
H         -6.33012         7.83205        -3.17110
O          3.66738       -10.03568        -1.52435
H          2.82901        -9.77862        -2.03103
O          2.62556         2.12405         1.69725
H          2.40044         2.79957         2.37609
O         -0.93333       -10.41867        -2.12681
H         -0.09553       -10.00810        -2.51804
H         12.03517        -1.26126         1.44370
H         12.14927         1.14321         1.02395
H         10.97233         3.33056         0.87161
H          9.77363         5.46640         0.85596
H          7.84624         7.33245        -0.75745
H          7.16588         9.84019        -0.35029
H          5.09495        11.02559        -0.73785
H          2.49393        11.18666        -0.60177
H         -0.00760        11.24684        -0.40951
H         -2.48899        11.17745        -0.16501
H         -4.98965        10.92693         0.32348
H         -7.11224         9.77064         0.06948
H         -8.56013         7.76963        -1.00712
H         -9.68645         5.43914        -0.20961
H         -9.77627         3.58489         1.51341
H        -10.00081         1.72937         3.18047
H         -9.98857        -0.66925         3.66467
H         -9.47808        -3.13577         2.95926
H         -9.38805        -5.40266         1.04743
H         -8.13624        -7.58466         1.62036
H         -6.84245        -9.84664         1.22526
H         -5.14978       -11.05824         0.13030
H         -2.51539       -11.15499         0.00023
H         -0.25866       -10.59255         0.74567
H          2.16957       -10.95809         0.62511
H          4.75392       -11.04589         0.83947
H          6.69833        -9.73107         1.46070
H          8.20351        -7.71918         0.94652
H          9.67589        -5.74120        -0.08106
H         10.45962        -3.53737         1.62165
