         244
 CSIRO Nanostructure Databank - Neutral Graphene Oxide Data Set
C          1.40421         1.92674        -0.19005
C          1.37001         3.31866        -0.30116
C          2.61442         1.24876        -0.09833
C          2.56921         4.07310        -0.35892
C          1.37579         6.26727        -0.77378
C          1.39425         7.63113        -0.78975
C          2.56435         5.49002        -0.55232
C          2.64902         8.39347        -0.42257
C          1.40272        10.59516        -0.56633
C          1.30395        11.92610        -0.75749
C          2.65440         9.87137        -0.75596
C          2.46603        12.73446        -1.17243
C          1.31429        14.92956        -0.28340
C          1.39360        16.25590        -0.00557
C          2.47675        14.21823        -0.85088
C          2.64016        16.97592        -0.10407
C          2.66625        18.41797         0.06415
C          3.84401         1.96330        -0.09725
C          3.82707         3.38542        -0.25058
C          5.07611         1.28832         0.09104
C          5.06904         4.10795        -0.19947
C          3.84065         6.17082        -0.76941
C          3.86140         7.66928        -0.98034
C          5.09982         5.51486        -0.39113
C          5.26534         8.30306        -1.00188
C          3.80762        10.52969        -1.05611
C          3.80656        12.01019        -1.41985
C          5.19481         9.89326        -1.20761
C          5.01863        12.75767        -0.86385
C          3.79060        14.89529        -0.75572
C          3.82105        16.28613        -0.40120
C          4.98265        14.19338        -0.89396
C          5.09524        16.99193        -0.36872
C          3.83309        19.08562         0.19625
C          5.09956        18.29692         0.38600
C          6.28479         1.99652         0.22943
C          6.27969         3.43253         0.11149
C          7.50408         1.33904         0.51576
C          7.46425         4.18189         0.35694
C          6.23874         6.26512        -0.00532
C          6.09723         7.77279         0.18283
C          7.41004         5.60496         0.37775
C          7.41020         8.51782         0.28184
C          6.08164        10.62417        -0.09507
C          6.18639        12.08610        -0.46624
C          7.40129         9.92026         0.12932
C          7.40815        12.77713        -0.22751
C          6.28976        14.92829        -1.10354
C          6.25040        16.41543        -0.79807
C          7.40408        14.29306        -0.24511
C          7.52872        17.21725        -1.04063
C          6.37287        19.06684         0.23589
C          7.53548        18.55872        -0.25027
C          8.70045         2.06114         0.70717
C          8.69505         3.50408         0.64085
C          9.89375         1.38671         1.04279
C          9.89200         4.24825         0.83647
C          8.54264         6.37109         1.02475
C          8.59339         7.83144         0.61989
C          9.87296         5.64371         0.92887
C          9.78121         8.55604         0.80821
C          8.60135        10.66039         0.28277
C          8.59157        12.11023         0.13477
C          9.80131         9.96596         0.62520
C          9.83119        12.84399         0.35612
C          8.76812        14.84994        -0.65457
C          8.76054        16.36185        -0.75114
C          9.89594        14.27520         0.18110
C          9.99190        16.93541        -0.79644
C          8.72456        19.37935         0.03124
C          9.98067        19.17537        -0.44456
C         11.12486         2.07667         1.19569
C         11.21885         3.52422         0.76031
C         12.24264         1.40875         1.62023
C         12.39159         4.26980         1.37836
C         11.08621         6.36536         1.17412
C         10.98965         7.84332         1.29417
C         12.30498         5.71737         1.42853
C         12.29234         8.62250         1.30575
C         11.03736        10.71077         0.76423
C         11.00011        12.13103         0.65633
C         12.27492        10.04245         0.95232
C         12.28841        12.85320         0.93204
C         11.06999        15.02875         0.40348
C         11.08957        16.45680         0.02735
C         12.29596        14.33507         0.66561
C         11.93639        17.37939         0.62370
C         11.26727        19.69511         0.02932
C         12.22638        18.79982         0.41690
C         13.56856         2.06777         1.82356
C         13.53837         3.57958         1.67797
C         14.59354         1.47876         0.88049
C         14.91103         4.21876         1.79428
C         13.53140         6.50200         1.72393
C         13.56253         7.90051         1.33691
C         14.90852         5.73824         1.74061
C         14.80367         8.65714         1.32840
C         13.52756        10.68665         0.72694
C         13.44771        12.10314         0.30283
C         14.75836        10.03849         0.78683
C         14.68640        12.80346        -0.12491
C         13.56169        14.94940         0.60589
C         13.73468        16.30055         0.94009
C         14.68608        14.32076        -0.20490
C         14.84878        17.08471         0.59924
C         13.55702        19.30333         1.01337
C         14.83774        18.52003         0.69148
C         15.67684         2.18822         0.44329
C         15.86842         3.59032         0.79738
C         16.66003         1.54650        -0.41625
C         16.97169         4.28780         0.35797
C         16.09257         6.43314         1.23432
C         16.16060         7.89061         1.35355
C         17.11252         5.71723         0.56292
C         17.43746         8.63207         0.95705
C         15.97924        10.66617         0.29821
C         15.97012        12.07437        -0.07023
C         17.17752         9.95467         0.25181
C         17.14536        12.79879        -0.23161
C         16.01644        14.97306         0.05042
C         16.04986        16.37369         0.23599
C         17.20318        14.24390        -0.13399
C         17.28444        17.06556         0.17432
C         16.03639        19.18759         0.52757
C         17.28665        18.49592         0.31831
C         17.81945         2.16691        -0.75875
C         18.16403         3.50500        -0.15363
C         18.85163         1.49957        -1.53685
C         19.12592         4.31178        -0.97091
C         18.28788         6.39201         0.07128
C         18.42595         7.78614         0.17706
C         19.30783         5.65456        -0.66818
C         19.59006         8.43699        -0.31344
C         18.35441        10.56491        -0.35555
C         18.37888        12.08624        -0.54611
C         19.64903         9.86349        -0.35193
C         19.67557        12.77315        -0.50081
C         18.45982        14.91744        -0.16503
C         18.49150        16.33725        -0.02987
C         19.69544        14.18661        -0.33629
C         19.73643        17.04172        -0.06979
C         18.50707        19.17105         0.24688
C         19.73332        18.46742         0.06415
C         19.90024         2.16696        -2.05532
C         19.97398         3.66854        -2.03600
C         21.37754         4.21348        -2.00749
C         20.53944         6.30595        -1.05628
C         20.70431         7.68849        -0.82262
C         21.60464         5.48056        -1.59037
C         21.90776         8.40770        -1.12039
C         20.82768        10.55418        -0.66519
C         20.86738        12.02188        -0.62847
C         21.98327         9.77305        -0.98840
C         22.08928        12.73604        -0.64054
C         20.93889        14.87993        -0.36089
C         20.96437        16.33286        -0.23172
C         22.11921        14.11781        -0.52213
C         22.16349        17.06893        -0.26469
C         20.96788        19.16142         0.01985
C         22.15784        18.46433        -0.14318
O         12.70957        16.88272         1.70600
O         14.29148         6.22269         2.96252
O         13.71253        12.26658        -1.12023
O         10.14699        18.18016        -1.42856
O         11.50102         8.34984         2.56040
O          5.71713        10.17676        -2.44909
O          3.67997         6.84796        -2.12138
O         18.16374        11.17737        -1.67918
O          2.16635        13.70372        -2.21274
O         15.61554         8.47188         2.56861
O          4.00810        12.06923        -2.85089
H          4.75926        11.43136        -3.04155
O         12.54934        12.73830         2.37504
H         11.79322        13.13905         2.85299
O          6.59526        14.73941        -2.51231
H          5.97746        15.29282        -3.03464
O         14.36066        14.69824        -1.57660
H         13.79051        13.97483        -1.93356
O          9.11306        14.36648        -1.98344
H          8.32685        14.51310        -2.56739
O          5.96623         7.77686        -2.12782
H          6.01062         8.53152        -2.78141
O          8.18963         6.41296         2.46210
H          8.37827         5.52632         2.83771
O         13.73530        20.67485         0.67148
H         13.90769        20.73467        -0.29050
O          2.76514         8.30138         1.03339
H          2.13373         8.94030         1.42567
O         19.40459         4.09392        -3.33530
H         19.51168         5.06759        -3.39371
O         18.12587         8.97992         2.19696
H         17.42086         9.12463         2.87124
O          5.08140        17.88094         1.80497
H          5.78991        17.21097         1.91901
O          5.39771         7.93872         1.44799
H          5.98986         7.59266         2.15220
O         13.97859         1.72501         3.17902
H         14.74016         2.32035         3.40152
O         11.55765         3.49219        -0.67204
H         10.80154         3.07994        -1.14191
O         15.48966         3.90138         3.10908
H         15.11618         4.56651         3.73391
O          7.12903        14.72505         1.11787
H          7.63868        14.15189         1.72849
O         18.92280         3.18748         1.07800
H         18.28481         2.80978         1.72187
O          5.31926        10.61101         1.13459
H          5.23507         9.67148         1.44877
O          7.52765        17.57069        -2.45052
H          8.40745        17.97215        -2.63402
H          0.46049         1.36401        -0.16912
H          0.39924         3.82773        -0.36320
H          2.63117         0.15455         0.00359
H          0.41930         5.74748        -0.93199
H          0.45742         8.17341        -0.98214
H          0.51216        10.03004        -0.25508
H          0.33268        12.42609        -0.63801
H          0.34916        14.40913        -0.21313
H          0.50071        16.80448         0.32908
H          1.70704        18.95713         0.03709
H          5.07668         0.19353         0.19596
H          3.85723        20.18091         0.29218
H          7.51997         0.24242         0.59990
H          6.40000        20.04418         0.74646
H          9.86570         0.30133         1.22237
H          8.58380        20.16414         0.79075
H         12.17107         0.34251         1.88579
H         11.47147        20.77640         0.08988
H         14.49177         0.42029         0.59572
H         13.42974        19.26821         2.13173
H         16.44399         0.53012        -0.77951
H         16.05552        20.28621         0.59165
H         18.76379         0.41032        -1.67449
H         18.53360        20.26637         0.34828
H         20.67170         1.63003        -2.62766
H         22.19124         3.60804        -2.43350
H         22.61954         5.89845        -1.65225
H         22.79490         7.85853        -1.46426
H         22.93131        10.27549        -1.22465
H         23.04105        12.19586        -0.73548
H         23.09591        14.61994        -0.54403
H         23.12702        16.55684        -0.38925
H         20.97521        20.25636         0.11887
H         23.11099        19.01071        -0.17536
