         720
 CSIRO Nanostructure Databank - Neutral Graphene Oxide Data Set
C         23.20718        27.67590        -0.96759
C         23.05624        28.76308        -0.14358
C         22.84732        31.31110         1.54982
C         22.86008        32.35463         2.47584
C         22.87354        36.14886         3.47467
C         22.89057        37.51774         3.22624
C         22.94954        40.48299         2.83503
C         22.90543        41.63604         2.14757
C         22.89848        44.15312         0.27352
C         22.88903        45.43178        -0.19043
C         25.69765        25.89846        -3.13820
C         24.54577        26.19676        -2.47956
C         25.59351        28.15809        -1.42682
C         24.41755        27.37626        -1.66707
C         25.42130        29.44299        -0.69208
C         24.10283        29.79349        -0.05254
C         25.21383        31.68634         1.18189
C         24.04631        30.92139         0.93759
C         25.20146        32.88410         1.93382
C         24.01153        33.13707         2.64335
C         25.24617        35.96243         2.81091
C         24.04423        35.40908         3.29124
C         25.25188        37.36013         2.61193
C         24.07837        38.13348         2.81367
C         25.42820        40.29886         2.40867
C         24.16987        39.62476         2.82778
C         25.37498        41.81349         2.19477
C         24.10929        42.14978         1.36867
C         25.30818        44.47552         1.06795
C         24.03127        43.64763         1.07067
C         25.29291        45.74208         0.30647
C         24.06377        46.27109        -0.14954
C         25.20869        48.31449        -0.82783
C         24.04998        47.57743        -0.71390
C         28.41155        25.02249        -4.15743
C         28.23783        26.05758        -3.21837
C         26.90716        26.79394        -3.08157
C         28.09623        28.46165        -1.47784
C         26.82822        27.76075        -1.91965
C         27.84024        29.19287        -0.15250
C         26.67767        30.18498        -0.27603
C         27.76236        31.78528         1.26920
C         26.52586        30.96151         1.03797
C         27.71277        33.08202         1.69403
C         26.38883        33.85417         1.74017
C         27.74438        35.90545         2.34140
C         26.50542        35.09355         2.70735
C         27.75820        37.31215         2.14839
C         26.45201        38.00913         2.01656
C         27.79986        40.11447         1.31908
C         26.47605        39.47193         1.73529
C         27.76595        41.63034         1.36064
C         26.63438        42.37055         1.57659
C         27.80525        44.38180         0.60462
C         26.67291        43.87912         1.46926
C         27.74368        45.68117         0.14582
C         26.50519        46.42078         0.04433
C         27.68879        48.49707        -0.64375
C         26.48040        47.75954        -0.48270
C         27.73669        49.90077        -0.88650
C         30.81521        24.77397        -3.64517
C         29.56867        24.25724        -4.20763
C         30.71030        25.94717        -2.68762
C         29.31987        26.30584        -2.28947
C         30.43734        27.94879        -0.60901
C         29.22879        27.47927        -1.22451
C         30.30425        29.02764         0.38109
C         29.07603        29.85396         0.41516
C         30.21730        31.57270         1.78765
C         29.01011        31.02365         1.12174
C         30.27780        33.05758         1.86779
C         28.99375        33.81994         1.85467
C         30.20710        35.89070         2.49404
C         29.00130        35.22847         2.30949
C         30.23058        37.38785         2.64546
C         28.95210        38.03638         2.17336
C         30.27691        40.09864         1.53294
C         28.98453        39.55113         2.12983
C         30.20909        41.41624         0.87183
C         28.99756        42.25224         0.94263
C         30.26387        44.22696         0.17099
C         29.02888        43.60251         0.53766
C         30.26185        45.60415        -0.33871
C         28.94890        46.33082        -0.40432
C         30.21217        48.39806        -0.98068
C         28.99330        47.83290        -0.27472
C         30.18914        49.85575        -1.29550
C         28.91886        50.57672        -1.06835
C         33.38058        22.28536        -4.77612
C         32.22944        23.00972        -4.63460
C         33.12349        24.31299        -2.70362
C         32.06449        23.98603        -3.61784
C         33.07946        25.42863        -1.87144
C         31.93702        26.42604        -1.89184
C         32.85831        27.56745         0.12856
C         31.58905        26.96710        -0.47954
C         32.82183        28.82720         0.83661
C         31.52190        29.46190         1.14661
C         32.78360        31.58757         1.87310
C         31.51222        30.81767         1.79407
C         32.79125        32.94617         2.24314
C         31.50604        33.66204         2.48071
C         32.78053        35.91003         2.88976
C         31.47186        35.13904         2.73271
C         32.75772        37.21766         2.10552
C         31.47208        37.96937         1.96216
C         32.75326        40.06922         1.38628
C         31.49177        39.42423         1.61841
C         32.78633        41.48859         1.08026
C         31.54004        42.14645         0.63547
C         32.70190        44.36028         0.47765
C         31.50669        43.61292         0.45051
C         32.75133        45.71130         0.01834
C         31.52093        46.38187        -0.35830
C         32.73743        48.45090        -0.92686
C         31.51008        47.72132        -0.70857
C         32.74115        49.77779        -1.30841
C         31.48777        50.63789        -1.25353
C         32.67544        52.22555        -2.73745
C         31.50454        51.72934        -2.28949
C         35.97395        20.82610        -5.08423
C         35.81361        21.99742        -4.22443
C         34.44421        22.39014        -3.77154
C         35.57394        23.88532        -1.97793
C         34.33470        23.43881        -2.69159
C         35.32951        24.81071        -0.80114
C         34.33794        25.93802        -1.19833
C         35.18574        27.24577         0.81152
C         34.05559        26.89342        -0.04824
C         35.17499        28.65791         1.42747
C         33.98260        29.48645         1.22504
C         35.22243        31.56766         1.78661
C         33.99452        30.88789         1.62509
C         35.22417        32.93428         2.13117
C         34.01859        33.65789         2.36619
C         35.22166        35.83527         2.49988
C         34.04173        35.10111         2.56512
C         35.21348        37.28061         2.29708
C         34.04229        37.95370         1.99563
C         35.19299        40.09825         1.59723
C         34.00913        39.37402         1.62850
C         35.14250        41.59945         1.77708
C         33.93846        42.24921         1.15382
C         35.20480        44.46746         0.76814
C         33.90908        43.77524         1.16408
C         35.21662        45.74959         0.21680
C         33.97646        46.38618        -0.13688
C         35.26375        48.46354        -0.83340
C         34.01214        47.63564        -0.98711
C         35.25090        49.78464        -1.31694
C         33.98777        50.44219        -1.65811
C         35.19331        52.39401        -2.64627
C         33.94500        51.67025        -2.31364
C         35.22612        53.42889        -3.71492
C         38.38175        21.06073        -4.85293
C         37.22539        20.49474        -5.49356
C         38.31669        21.81977        -3.70065
C         37.03236        22.50944        -3.45666
C         37.99477        23.67591        -1.44261
C         36.81422        23.36763        -2.25425
C         37.86400        24.74859        -0.43191
C         36.61239        25.36533        -0.22335
C         37.73359        27.10437         1.33389
C         36.48918        26.48299         0.73922
C         37.76368        28.56541         1.72542
C         36.46682        29.33144         1.77530
C         37.76486        31.48413         1.94429
C         36.50193        30.81411         1.43560
C         37.72225        32.96754         1.76494
C         36.50842        33.63127         2.34998
C         37.84445        35.84058         2.40142
C         36.52004        35.12019         2.57342
C         37.82060        37.36129         2.47315
C         36.52326        37.91385         1.85669
C         37.66627        40.01478         1.08322
C         36.52031        39.46648         1.95956
C         37.66631        41.54653         0.99762
C         36.45808        42.32536         1.43451
C         37.73758        44.43404         0.62625
C         36.47530        43.79421         1.07644
C         37.69413        45.80291         0.21667
C         36.47341        46.47271        -0.00403
C         37.72332        48.59114        -0.50323
C         36.48310        47.84250        -0.45377
C         37.71526        49.92311        -1.07674
C         36.48847        50.45939        -1.51217
C         37.70219        52.06437        -3.04878
C         36.48191        51.75384        -2.24028
C         37.67404        53.18898        -4.04334
C         36.36782        53.85770        -4.27920
C         41.28123        17.48649        -5.02111
C         40.43020        18.47118        -5.50431
C         40.95719        19.94839        -3.59515
C         40.29515        19.68538        -4.80938
C         40.77037        21.23246        -2.82105
C         39.49492        22.12686        -2.83389
C         40.28892        23.24271        -0.68674
C         39.20441        23.03094        -1.66426
C         40.22715        24.39850         0.28434
C         39.00916        25.20575         0.27258
C         40.27750        27.27539         0.74320
C         39.06920        26.39134         1.18640
C         40.24748        28.64841         1.39502
C         39.06851        29.29720         1.60620
C         40.29964        31.55800         1.52803
C         39.07688        30.76631         1.88685
C         40.25657        32.92597         1.36763
C         38.98301        33.69099         1.48805
C         40.23414        35.91420         1.41843
C         39.05628        35.13034         1.89211
C         40.27371        37.36280         1.70169
C         39.04613        38.04570         1.84637
C         40.21884        40.12211         1.35766
C         39.00438        39.41382         1.50513
C         40.20499        41.61013         1.27966
C         38.94748        42.30526         0.88274
C         40.20570        44.44831         0.53511
C         38.95346        43.78781         0.80684
C         40.17827        45.80560         0.13290
C         38.94079        46.48351         0.02594
C         40.19939        48.53094         0.03970
C         38.92483        47.89548        -0.16464
C         40.17099        50.45115        -0.76944
C         38.94106        50.68010        -1.40239
C         40.17512        52.28131        -2.82861
C         38.97550        51.65457        -2.44084
C         40.15996        53.39853        -3.75650
C         38.95689        53.88054        -4.32525
C         40.16342        55.69407        -5.41480
C         38.98097        55.02972        -5.14773
C         43.07421        16.78727        -3.45393
C         42.09488        17.76415        -3.90543
C         43.00054        19.37049        -2.26139
C         41.94294        18.99568        -3.21939
C         42.69304        20.50126        -1.37360
C         41.68045        21.37418        -1.64803
C         42.73342        23.10561        -0.26738
C         41.60217        22.59985        -0.86674
C         42.78485        24.42955         0.28878
C         41.51084        24.98253         0.90175
C         42.83394        27.08123         1.47193
C         41.54186        26.49379         0.93133
C         42.82392        28.61481         1.52900
C         41.53321        29.36392         1.60034
C         42.76310        31.51291         1.45279
C         41.56255        30.84582         1.44629
C         42.79912        32.95407         1.18182
C         41.48965        33.68077         1.06416
C         42.79055        35.90127         1.30504
C         41.50389        35.18173         1.12408
C         42.76804        37.31817         1.42328
C         41.49740        38.04838         1.51373
C         42.71201        40.23648         1.62651
C         41.45687        39.46359         1.49226
C         42.76092        41.65641         1.22725
C         41.48247        42.39732         1.21471
C         42.68139        44.51294         0.63244
C         41.45108        43.77918         0.69640
C         42.69357        45.84419         0.25759
C         41.45801        46.45910        -0.34691
C         42.65234        48.73005        -0.39532
C         41.42723        47.95995        -0.19514
C         42.65170        50.08980        -0.97041
C         41.43549        50.77211        -1.33042
C         42.65319        52.42507        -2.67307
C         41.42508        51.81761        -2.30205
C         42.63192        53.59381        -3.50801
C         41.38984        54.06788        -4.04297
C         42.60893        55.91214        -5.12347
C         41.38447        55.22924        -4.86855
C         44.01622        17.06040        -2.51964
C         45.02267        18.72849        -0.79156
C         44.14569        18.42214        -1.97158
C         44.71138        19.82092        -0.05246
C         43.56969        20.78067        -0.17572
C         45.25704        22.94690         0.03892
C         43.97096        22.26714        -0.29902
C         45.25524        24.43345         0.14669
C         43.98899        25.11701         0.37892
C         45.20167        27.25025         0.54408
C         44.04500        26.52255         0.73648
C         45.27300        28.67675         0.76524
C         43.96508        29.41938         0.90372
C         45.24083        31.61153         1.01259
C         44.09707        30.79915         1.59845
C         45.26877        32.98354         1.10154
C         44.03957        33.70118         1.61935
C         45.23875        35.88837         1.37769
C         44.01007        35.19192         1.33331
C         45.22191        37.30013         1.50414
C         44.00392        38.00712         1.53683
C         45.24904        40.24292         1.36985
C         44.02114        39.48551         1.70560
C         45.22208        41.59624         1.10202
C         43.95036        42.30849         1.03140
C         45.23218        44.48568         0.58589
C         43.95375        43.79584         0.93819
C         45.20101        45.93022         0.23137
C         43.91251        46.70823         0.49876
C         45.12164        48.81383        -0.29338
C         43.85553        48.06014        -0.21368
C         45.14716        50.10929        -1.02054
C         43.87675        50.68474        -1.39133
C         45.10129        52.55694        -2.49983
C         43.87374        51.89673        -2.16844
C         45.08019        53.77690        -3.24714
C         43.83378        54.29041        -3.77389
C         43.79018        55.46200        -4.58634
C         47.45581        18.60551        -0.18095
C         46.28336        18.00601        -0.49879
C         47.65506        20.10321        -0.29836
C         46.60659        20.87346         0.48330
C         47.78620        22.94652         0.14512
C         46.51354        22.21671         0.32418
C         47.73219        24.42833         0.00959
C         46.42161        25.13086         0.00592
C         47.69572        27.33810         0.06644
C         46.37536        26.62898        -0.18679
C         47.70708        28.71133         0.26800
C         46.43897        29.38689         0.54931
C         47.70216        31.63925         0.32663
C         46.39416        30.87035         0.47931
C         47.70553        33.06700         0.69759
C         46.49263        33.74421         0.93540
C         47.72210        35.83573         1.29013
C         46.50420        35.15645         1.22692
C         47.78489        37.24071         1.88213
C         46.48423        38.03497         1.78503
C         47.85660        40.26381         1.46533
C         46.52238        39.53580         1.64918
C         47.66866        41.61358         0.77652
C         46.47669        42.27423         0.73963
C         47.67496        44.42503         0.06032
C         46.37750        43.63856         0.05690
C         47.64924        45.83231        -0.09114
C         46.39150        46.56727        -0.01489
C         47.69962        48.73083        -0.43171
C         46.41524        48.05302        -0.07949
C         47.65475        50.14015        -1.02461
C         46.34524        50.72870        -1.38314
C         47.55792        52.63688        -2.46555
C         46.35112        51.97815        -2.11439
C         47.50676        53.87233        -3.12320
C         46.29740        54.44062        -3.49752
C         50.22672        20.06402        -0.05652
C         49.01127        20.75645        -0.07927
C         50.24169        22.88995        -0.17564
C         49.03327        22.17642        -0.10296
C         50.26515        24.35652        -0.61156
C         48.94021        25.14347        -0.50416
C         50.22684        27.34272        -0.13607
C         48.94003        26.63564        -0.31427
C         50.20171        28.75485         0.05375
C         48.95297        29.46471         0.20317
C         50.18738        31.60504         0.36865
C         48.97466        30.87806         0.32372
C         50.17741        33.04509         0.54246
C         48.94733        33.75506         0.76296
C         50.20917        35.84295         1.11484
C         48.95905        35.15545         1.05336
C         50.29120        37.28526         1.61050
C         48.99051        37.99910         1.38954
C         50.20820        40.07782         0.62491
C         48.87838        39.34482         0.71303
C         50.17213        41.51004         0.21005
C         48.82913        42.21096         0.00884
C         50.11778        44.43891         0.00079
C         48.89029        43.72779         0.11624
C         50.11357        45.78957        -0.34210
C         48.87673        46.52342        -0.39525
C         50.08872        48.54413        -1.30992
C         48.88515        47.91034        -0.66241
C         50.10249        50.05272        -1.35847
C         48.90135        50.68544        -1.59481
C         50.09692        52.79420        -2.05655
C         48.89805        51.94531        -2.40596
C         51.42893        20.76364        -0.00562
C         52.72963        22.89340        -0.02738
C         51.46822        22.17427        -0.09555
C         52.69199        24.36491         0.16442
C         51.41947        25.13251         0.01453
C         52.66205        27.33233         0.04979
C         51.43801        26.62849        -0.09661
C         52.65865        28.73531         0.09021
C         51.43812        29.45503         0.12372
C         52.64398        31.60624         0.16074
C         51.44579        30.90382         0.24522
C         52.62548        33.06694         0.14463
C         51.38477        33.77266         0.53397
C         52.68991        35.89335         0.95759
C         51.39704        35.16103         0.84372
C         52.68287        37.37645         0.92338
C         51.49262        38.03271         1.08684
C         52.67391        40.23577         1.20951
C         51.39997        39.47301         0.91454
C         52.68334        41.65338         0.72706
C         51.43409        42.30542         0.30104
C         52.69188        44.48017         0.13386
C         51.38737        43.80035         0.51295
C         52.68458        45.85992        -0.25462
C         51.40452        46.42254        -0.82333
C         52.62158        48.72337        -0.77157
C         51.35685        47.93385        -0.75643
C         52.58419        50.12721        -1.25190
C         51.35567        50.76386        -1.49182
C         51.26124        52.20209        -1.70780
C         55.17088        22.97655         0.29119
C         53.96658        22.27089         0.05987
C         55.23712        24.37476         0.29349
C         53.98184        25.09728        -0.01575
C         55.23113        27.28099         0.28324
C         53.95777        26.60232        -0.01239
C         55.24825        28.75199         0.36463
C         53.93720        29.49369         0.24705
C         55.21123        31.65863         0.05075
C         53.92320        30.92032        -0.27873
C         55.22869        33.05192         0.17771
C         53.93200        33.79241         0.08713
C         55.18433        35.95654         0.13587
C         53.95298        35.20275         0.58222
C         55.14620        37.42468         0.44498
C         53.94928        38.09395         0.71005
C         55.16333        40.25852         0.78910
C         53.93942        39.51214         0.83188
C         55.11443        41.69714         0.87482
C         53.87624        42.37841         0.71789
C         55.14653        44.50591         0.34573
C         53.88155        43.80393         0.40266
C         55.14997        45.85900        -0.26432
C         53.87020        46.58297        -0.41254
C         55.09721        48.71013        -0.87220
C         53.91193        47.98998        -0.71640
C         55.03221        50.09229        -1.23280
C         53.84522        50.76548        -1.42966
C         57.66261        24.46818         0.83216
C         56.44600        25.12017         0.42146
C         57.70547        27.28905         0.24168
C         56.41809        26.55926         0.32263
C         57.73394        28.77193         0.28939
C         56.52653        29.46877         0.21590
C         57.77855        31.66208         0.13262
C         56.49213        30.90952        -0.25113
C         57.66240        33.05100         0.68524
C         56.41700        33.78634         0.40231
C         57.69378        35.98336         0.50712
C         56.38940        35.24653         0.79365
C         57.68139        37.46181         0.58142
C         56.41407        38.17474         0.14781
C         57.66226        40.36574         0.33878
C         56.38716        39.60743         0.57543
C         57.67599        41.76663         0.91374
C         56.35108        42.47152         1.01318
C         57.59773        44.68520         0.93451
C         56.32744        43.90668         0.70747
C         57.62267        46.04430         0.28688
C         56.44580        46.59907        -0.40295
C         57.55984        48.85231        -0.17842
C         56.47835        48.05767        -0.87669
C         58.84022        25.12794         1.01778
C         60.14571        27.32519         0.99505
C         58.99551        26.52177         0.59591
C         60.15271        28.68571         0.79555
C         59.00357        29.42568         0.40414
C         60.21513        31.65376         0.93792
C         59.05908        30.90985         0.36495
C         60.18966        32.98586         1.11420
C         58.92264        33.76467         1.07760
C         60.09904        36.07247         1.30402
C         58.98040        35.25079         0.82138
C         60.04097        37.42540         1.26135
C         58.85963        38.15763         0.82498
C         60.08889        40.34502         0.76679
C         58.91495        39.60442         0.72013
C         60.11149        41.75782         0.66032
C         58.94110        42.53196         0.70564
C         60.07262        44.76054         0.76809
C         58.90911        43.94766         0.72006
C         59.99426        46.14502         0.78018
C         58.76355        46.80846         0.45513
C         58.67390        48.25646         0.29169
O         30.67261        30.89709         2.99777
O         45.53531        20.14831         1.04259
O         46.84440        31.35722        -0.83577
O         53.60207        35.32791         1.98098
O         34.82652        27.48377         2.20097
O         29.85656        33.69320         0.63025
O         31.31618        34.15903         3.84617
O         36.61644        34.17565         3.69441
O         30.06382        48.84540        -2.36106
O         44.86358        22.59272        -1.39421
O         53.21189        33.59996        -1.16616
O         51.80829        48.50873         0.48458
O         24.36992        44.51091         2.19441
O         55.94971        45.76483        -1.52881
O         35.95087        52.86963        -1.44796
O         28.90138        26.09774        -0.91386
O         48.01146        23.84513         1.33538
O         48.73175        25.97186        -1.68382
O         26.02672        38.55193         0.69041
O         34.05420        22.00873        -2.41157
O         30.61291        28.49686         1.76691
O         58.57211        26.75767        -0.79478
O         30.96785        26.21372        -4.09315
O         40.16298        49.85845         0.49312
O         57.12615        42.02386         2.23440
O         40.64819        35.69549         0.03336
O         42.30798        29.02430         2.83711
O         58.55041        35.49804        -0.57261
O         30.86576        41.44442        -0.44453
O         37.61526        51.77264        -4.48429
O         36.91252        26.20535         2.13534
O         31.98758        37.14894         0.86144
O         37.08778        28.88773         2.99327
O         42.24512        33.25641        -0.13044
O         45.78329        48.74816         1.04527
O         40.73880        42.22967         2.49703
O         43.36413        39.96945         2.92401
O         58.02533        33.25985         2.14087
O         38.85937        35.31913         3.33217
O         38.41963        31.10143         3.17241
O         38.22539        41.86929        -0.33532
O         51.87179        24.72484         1.34656
O         50.99741        41.78606        -1.01412
O         29.48507        45.75961        -1.61611
O         54.04581        25.82502        -1.28287
O         36.70763        43.31372         2.47358
O         58.74802        31.54472        -0.95811
O         39.58522        20.68892        -5.45863
O         25.22641        39.98460         3.82711
O         54.50729        29.31324         1.56371
O         44.84626        44.32628         1.98709
O         44.30944        19.48754        -2.97721
O         23.97985        34.06493         3.69178
O         36.55450        23.17426        -4.68664
O         46.38382        38.90539         2.97573
O         40.70540        22.47837        -3.58409
O         38.01362        33.41193         0.39453
O         24.49385        30.33377        -1.40161
O         39.88765        23.02973         0.72551
O         47.90042        49.91346         0.41542
O         53.82525        30.82400        -1.72583
H         53.80218        31.74739        -2.06960
O         51.29173        43.94156         1.96748
H         51.28360        44.89816         2.18358
O         50.59367        24.27044        -2.02238
H         50.11766        25.00150        -2.48381
O         56.20676        35.32737         2.22715
H         56.74781        34.60848         2.63562
O         37.86750        37.65084         3.89121
H         38.46972        36.98880         4.30559
O         36.61276        30.84065        -0.01982
H         36.85309        31.75372        -0.29911
O         49.98677        48.20884        -2.73947
H         50.36774        47.30393        -2.87100
O         44.02699        33.60132         3.07365
H         44.91155        33.85490         3.41143
O         31.19994        25.84768         0.33591
H         30.84600        26.20758         1.17852
O         36.61450        37.44244         0.49019
H         35.95283        37.91367        -0.05945
O         48.46440        41.97721        -1.40005
H         49.31186        41.98953        -1.90573
O         32.45039        27.59948        -2.60001
H         32.25490        27.44572        -3.55742
O         31.47902        51.29062         0.05823
H         32.29211        51.83587         0.12317
O         26.97432        31.15531        -1.31140
H         26.10711        31.37168        -1.73409
O         32.89619        36.27744         4.28385
H         32.65561        35.48186         4.80963
O         43.89401        47.01967         1.92252
H         44.64555        47.64193         2.08465
O         26.86414        27.66847        -4.27522
H         27.55693        28.35661        -4.13565
O         30.38100        37.74163         4.07411
H         29.83332        37.11705         4.59641
O         26.97849        44.39414         2.79501
H         26.25273        44.06502         3.38155
O         25.22070        42.45036         3.47966
H         25.24995        41.72982         4.15885
O         56.51624        38.20341        -1.37781
H         55.67670        38.59959        -1.70225
O         52.68101        40.32003         2.68813
H         53.54915        40.68823         2.95939
O         49.11083        51.50168        -3.80181
H         49.81391        50.81579        -3.78880
O         27.47830        28.11639         0.73355
H         27.37579        28.47987         1.64353
O         50.56047        37.18741         3.04680
H         49.70510        36.93940         3.48249
O         28.87601        40.03883         3.49383
H         29.50069        39.50038         4.03928
O         34.92361        41.77819         3.22153
H         35.64997        41.27859         3.67540
O         48.30579        39.14408        -0.61307
H         48.99000        38.74144        -1.18760
O         33.72140        44.11929         2.58508
H         34.33199        43.53427         3.10485
O         26.46531        30.00494         2.14637
H         26.55128        30.50776         2.98394
O         41.59310        24.48710         2.26792
H         40.81828        24.87179         2.74871
O         47.95372        36.95905         3.32036
H         47.62639        37.76535         3.78966
O         46.10127        26.85105        -1.61370
H         46.89575        26.52912        -2.10403
O         36.78865        39.92728         3.30880
H         37.23265        39.22007         3.83967
O         40.04119        27.51084        -0.68486
H         40.80573        28.00488        -1.05193
O         28.55277        29.35421        -2.52052
H         28.06934        30.21233        -2.39926
O         34.65875        24.06374         0.24402
H         35.25594        23.35269         0.55643
O         39.40585        25.96776         2.53711
H         38.56384        25.65698         2.94773
O         46.05339        43.37637        -1.33851
H         46.80060        42.83233        -1.69634
O         56.88660        48.04240        -2.27569
H         56.51049        47.21680        -2.66214
O         57.74678        40.59357        -1.11082
H         57.62562        39.70944        -1.54002
O         37.42891        39.55829        -0.26502
H         37.94085        40.15403        -0.86235
O         34.07955        47.11909        -2.37135
H         33.20320        46.73065        -2.58388
O         26.75974        34.55753         4.03089
H         25.90869        34.20658         4.37879
O         44.43009        30.61983         2.98859
H         43.67938        30.13541         3.41083
O         41.53394        46.19189        -1.80373
H         41.47675        45.22038        -1.92732
O         57.57919        44.93169         2.39858
H         57.55322        44.04030         2.82112
O         56.49055        30.75592        -1.70370
H         57.43695        30.80573        -1.98894
O         26.19368        34.43186         0.42839
H         26.38087        33.74875        -0.24946
O         48.44141        40.51746         2.75451
H         47.73363        40.79925         3.37139
O         47.37474        20.43703        -1.69868
H         46.47288        20.12527        -1.93766
O         42.76819        20.63583         1.02177
H         43.37420        20.66824         1.79294
O         43.02271        26.61208         2.83487
H         42.41681        27.13706         3.40577
O         24.21852        41.43532         0.12082
H         23.41626        41.60504        -0.41499
O         29.20226        48.07889         1.15119
H         29.13438        49.04452         1.30978
O         28.07353        39.78559        -0.05670
H         27.38419        39.14110        -0.34942
O         55.29003        35.78184        -1.29344
H         56.02639        36.35601        -1.61549
O         35.04129        26.74545        -2.18571
H         34.37036        27.37430        -2.55161
O         43.50079        29.65338        -0.45845
H         44.25423        29.98039        -0.99642
O         51.48256        46.07651        -2.25830
H         51.54144        45.09939        -2.32986
H         22.37575        26.96043        -1.05917
H         22.13403        28.87864         0.44305
H         21.91835        30.75413         1.36807
H         21.96072        32.59745         3.05610
H         21.96767        35.65051         3.84146
H         21.98156        38.11106         3.38924
H         22.06633        40.15170         3.40273
H         21.98990        42.24796         2.16444
H         22.03564        43.49163         0.09921
H         22.00159        45.81730        -0.71439
H         25.74170        25.00028        -3.77121
H         23.67459        25.53024        -2.57135
H         25.15949        49.32911        -1.24602
H         23.09298        48.00267        -1.04913
H         27.54622        24.70792        -4.75915
H         26.79975        50.47752        -0.86827
H         29.56484        23.30508        -4.75436
H         28.91739        51.67424        -1.13253
H         33.53483        21.65872        -5.66452
H         31.43954        22.90256        -5.39077
H         32.66955        53.07266        -3.43645
H         30.55016        52.17190        -2.60859
H         35.09401        20.25745        -5.41376
H         34.28516        53.92723        -3.98883
H         37.39079        19.69410        -6.22746
H         36.32315        54.68167        -5.00623
H         41.38859        16.53077        -5.55283
H         39.87378        18.32643        -6.43932
H         40.16498        56.58519        -6.05827
H         38.04909        55.40154        -5.59440
H         43.01897        15.78052        -3.89468
H         42.59557        56.81080        -5.75679
H         44.69674        16.27460        -2.16169
H         44.71214        56.01643        -4.80398
H         48.32870        17.96932         0.03372
H         46.24794        16.90437        -0.54436
H         48.44162        54.37784        -3.40083
H         46.31285        55.39394        -4.04041
H         50.23725        18.96496        -0.05309
H         50.05442        53.88482        -2.19148
H         52.36499        20.19400         0.06675
H         52.15108        52.82286        -1.52846
H         56.08824        22.38499         0.41312
H         54.03607        21.17767        -0.02447
H         55.97438        50.62721        -1.41418
H         53.88060        51.81154        -1.76403
H         57.61349        23.40418         1.10219
H         57.50872        49.94990        -0.22171
H         59.70093        24.61419         1.46992
H         61.01399        26.82742         1.44943
H         61.07726        29.23082         1.02853
H         61.16773        31.12190         1.07100
H         61.10805        33.51162         1.41577
H         60.97515        35.57576         1.74585
H         60.90166        38.00104         1.62899
H         61.05750        39.83456         0.86992
H         61.08953        42.25368         0.58575
H         61.06281        44.28391         0.80975
H         60.91086        46.74398         0.87908
H         59.51063        48.86394         0.66885
