         324
 CSIRO Nanostructure Databank - Neutral Graphene Oxide Data Set
C          1.73080         3.31448        -1.91799
C          0.72936         4.01431        -2.52327
C          1.42392         6.17342        -1.58304
C          0.55319         5.42811        -2.34198
C          1.36843         7.63820        -1.47657
C          0.15421         8.33664        -1.74004
C          1.20518        10.47768        -1.20404
C          0.07524         9.70229        -1.59896
C          1.13773        11.89841        -1.07155
C         -0.12052        12.61381        -1.16568
C          1.04047        14.78102        -1.23857
C         -0.18778        13.96731        -1.19189
C          1.03613        16.30853        -1.08400
C         -0.18003        17.02146        -0.62832
C          1.00884        19.18994        -0.54889
C         -0.15721        18.31822        -0.25825
C          1.14089        20.56087        -0.00373
C          0.06809        21.12970         0.77272
C          1.19481        23.31306         0.92786
C          0.12324        22.38576         1.29473
C          1.41125        24.55420         1.70828
C          0.26198        25.23198         2.25465
C          1.63657        27.04009         3.18162
C          0.33889        26.46014         2.84120
C          1.78267        28.46202         3.51761
C          3.88451         3.34747        -0.55296
C          2.58914         3.95063        -0.91369
C          3.59967         6.25441        -0.25917
C          2.42748         5.47138        -0.75991
C          3.79618         7.60830        -0.93541
C          2.49479         8.36611        -1.07096
C          3.58690        10.53889        -0.55421
C          2.44409         9.79191        -0.95564
C          3.54240        11.94728        -0.48978
C          2.31490        12.64400        -0.79266
C          3.39610        14.81558        -0.41868
C          2.28385        14.08051        -0.84954
C          3.48446        16.27517        -0.56691
C          2.33493        16.98964        -0.83437
C          3.56783        19.23087        -0.81822
C          2.31926        18.46817        -0.94078
C          3.57483        20.59281        -0.51638
C          2.34853        21.25675        -0.12758
C          3.71721        23.37407         0.32610
C          2.41097        22.69311         0.19896
C          3.80935        24.60435         1.00890
C          2.66988        25.14796         1.72590
C          4.09782        27.13907         2.41209
C          2.88054        26.33706         2.56567
C          4.19316        28.40182         3.02171
C          3.00523        29.05484         3.53146
C          6.19447         3.41028         0.24997
C          4.93293         4.05650        -0.00803
C          6.10500         6.30890         0.29797
C          4.82800         5.52982         0.20327
C          6.10827         7.75599         0.00174
C          4.94452         8.39092        -0.34966
C          6.05676        10.59295         0.29067
C          4.80044         9.82833        -0.08872
C          5.99181        12.09763         0.31446
C          4.65715        12.70340         0.02358
C          6.30901        15.15687         0.11912
C          4.44322        14.06239         0.19321
C          6.13782        16.44070        -0.48901
C          4.80110        16.97138        -0.80626
C          6.07882        19.22624        -1.07286
C          4.80648        18.49371        -1.09535
C          5.99206        20.70131        -1.16505
C          4.79998        21.36822        -0.61227
C          6.14451        23.43414        -0.29210
C          4.87389        22.71821        -0.23822
C          6.16125        24.83400         0.21202
C          5.05242        25.33534         1.03205
C          6.47864        27.25468         1.78196
C          5.19528        26.58285         1.68228
C          6.58767        28.50421         2.50932
C          5.44856        29.08245         3.04427
C          8.57150         3.56791         0.96741
C          7.37883         4.11351         0.46477
C          8.66197         6.26865        -0.07161
C          7.39415         5.59629         0.39956
C          8.60789         7.77615         0.11888
C          7.37305         8.46741         0.17497
C          8.55327        10.59398        -0.11595
C          7.35937         9.89228         0.16367
C          8.45597        12.04540        -0.42583
C          7.30332        12.85440         0.10654
C          8.55503        14.94633        -0.67149
C          7.35692        14.30822        -0.21230
C          8.57263        16.41906        -0.59552
C          7.30265        17.14972        -0.77256
C          8.58789        19.32891        -0.84728
C          7.28659        18.56387        -1.03701
C          8.56503        20.73705        -1.36595
C          7.28856        21.47817        -1.27749
C          8.68597        23.34747        -0.39168
C          7.30220        22.84636        -0.75569
C          8.74376        24.85351        -0.16493
C          7.50776        25.54811         0.33404
C          8.95347        27.14634         1.72595
C          7.63060        26.66006         1.27587
C          9.04611        28.49177         2.32627
C          7.89319        29.12710         2.67394
C         10.65860         3.82632         2.16953
C          9.74168         4.35329         1.18362
C         11.10855         6.40061         0.40493
C          9.88740         5.64393         0.57339
C         11.07466         7.77507        -0.06488
C          9.83179         8.48594        -0.06867
C         10.97118        10.60966        -0.75059
C          9.77900         9.90877        -0.29936
C         10.94246        11.99987        -1.01693
C          9.67835        12.75824        -0.93569
C         10.93980        14.91383        -1.28660
C          9.73808        14.24154        -0.92005
C         11.00701        16.32831        -1.35414
C          9.87141        17.14069        -0.90540
C         10.94615        19.18990        -1.74178
C          9.81373        18.55922        -1.26085
C         10.95310        20.62447        -1.99471
C          9.77397        21.42955        -1.59385
C         11.14570        23.44658        -1.02570
C          9.81994        22.81492        -1.27214
C         11.30386        24.64006        -0.09171
C         10.06639        25.42039         0.19355
C         11.49564        27.25030         1.22483
C         10.20347        26.52870         1.18348
C         11.60180        28.45562         1.95500
C         10.42017        28.96745         2.77010
C         12.87855         4.27152         3.29031
C         11.99758         4.16664         2.19753
C         13.65874         6.52405         0.38018
C         12.37864         5.80272         0.57041
C         13.64477         7.84047        -0.30834
C         12.26170         8.35490        -0.84703
C         13.22275        10.54264        -1.63421
C         12.17624         9.87294        -1.01245
C         13.26359        11.96440        -1.78662
C         12.10083        12.70767        -1.43762
C         13.31718        14.79636        -1.93124
C         12.12393        14.13728        -1.60090
C         13.34398        16.25018        -2.32191
C         12.14258        17.01375        -1.83454
C         13.37675        19.07248        -2.32431
C         12.14864        18.41055        -1.97964
C         13.34781        20.44576        -2.66848
C         12.07897        21.14145        -2.60527
C         13.54089        23.77424        -1.63706
C         12.28371        23.24799        -1.90877
C         13.68566        24.84233        -0.67651
C         12.55158        25.41297        -0.08788
C         13.91255        27.27721         0.75216
C         12.63604        26.66345         0.61147
C         14.02133        28.51235         1.47378
C         12.84674        29.08424         2.04935
C         14.96207         5.30056         4.20134
C         14.17369         4.83601         3.16341
C         15.64424         7.15157         1.82459
C         14.72261         6.22579         1.38625
C         15.79819         8.36535         1.01474
C         14.84909         8.68296        -0.01699
C         16.30832        10.50499        -0.77877
C         15.19338         9.64364        -0.95548
C         16.39973        11.71728        -1.50426
C         14.44049        12.67269        -2.14403
C         15.78039        14.78671        -1.75523
C         14.53692        14.07152        -2.06778
C         15.80184        16.25203        -1.72204
C         14.65165        16.96308        -2.01848
C         15.83417        19.13604        -2.34227
C         14.63727        18.39866        -2.23565
C         15.83852        20.55078        -2.57861
C         14.57827        21.12075        -2.87550
C         15.99985        23.53796        -1.77977
C         14.72730        23.26656        -2.26810
C         16.13401        24.73892        -0.97599
C         14.97854        25.41176        -0.48573
C         16.36320        27.22065         0.42104
C         15.08294        26.63697         0.23738
C         16.46663        28.48122         1.11183
C         15.29791        29.10006         1.62407
C         17.06639         5.96217         5.17949
C         16.19040         6.04557         4.06333
C         17.70756         7.71246         3.09850
C         16.52893         6.92789         2.98330
C         18.04270         8.71543         2.06318
C         16.96362         9.14669         1.14485
C         18.29441        11.18839         0.50093
C         17.18050        10.29165         0.32963
C         18.36232        12.37597        -0.21279
C         17.22580        12.74827        -1.04330
C         18.56799        15.35579        -0.50049
C         16.79539        14.11822        -1.06744
C         18.44539        16.34020        -1.42195
C         17.09388        17.00437        -1.56477
C         18.33150        19.06578        -2.60444
C         17.10033        18.44655        -2.01969
C         18.32030        20.59205        -2.71935
C         17.06682        21.34584        -2.46002
C         18.46189        23.32464        -1.86539
C         17.16425        22.71023        -2.09036
C         18.57810        24.62343        -1.26161
C         17.41057        25.30414        -0.76017
C         18.80113        27.17342         0.07926
C         17.52163        26.56173        -0.08163
C         18.90181        28.43642         0.75427
C         17.74260        29.06472         1.26440
C         18.24352         6.67704         5.24270
C         19.71508         8.46082         4.38201
C         18.57444         7.58465         4.21081
C         20.00946         9.45332         3.51008
C         19.24903         9.61292         2.25622
C         20.69045        11.34783         1.07824
C         19.31673        10.98737         1.60081
C         20.84735        12.33023         0.18349
C         19.70442        13.09185        -0.44550
C         21.01090        15.30044        -0.61237
C         19.78912        14.62679        -0.02991
C         20.95083        16.31146        -1.49921
C         19.68532        16.90956        -2.00594
C         20.85006        19.12447        -2.76857
C         19.63907        18.31320        -2.59013
C         20.81702        20.48936        -2.78844
C         19.62266        21.26568        -2.62471
C         20.91547        23.30926        -2.10858
C         19.66574        22.62795        -2.22424
C         21.00114        24.57441        -1.58212
C         19.84885        25.24668        -1.09658
C         21.21187        27.18108        -0.26770
C         19.96858        26.53651        -0.43608
C         21.30818        28.41463         0.39027
C         20.18030        29.04024         0.89941
O          5.32023        14.77145         1.01954
O          6.43145        21.25288        -2.46213
O         14.56309        22.42763        -3.38092
O         14.08333         6.63222        -1.04462
O          5.16143        10.08732         1.32774
O         15.55637        11.93833        -2.59279
O          6.80551        12.57441         1.44126
O         17.36843        14.85151         0.00120
O         12.07994        22.48084        -3.05236
O         11.48740        23.29649         0.45547
O          9.44493        16.89812         0.51004
O          1.39587        23.48416        -0.50656
O         14.35476         9.82114        -2.06294
O          8.62894        12.26724        -1.87328
O          4.75403        17.51031        -2.17060
O         18.13183        19.69040        -3.89222
O          9.72438        26.12631         2.52554
O          1.04403        15.67326        -2.40649
O          1.86037         4.55940         0.21162
O          6.80212         6.14320         1.61178
O          2.49035        26.15042         3.96470
O         14.72084         4.91481         1.85925
O          3.84013         6.07989         1.15000
O         19.61191        17.11044        -3.45313
O          9.44095        25.72539        -1.11006
O          1.41889        19.03725        -1.93918
O         12.55960         4.51903         0.92240
O         17.11698        18.11569        -0.58250
O          6.59752        25.82233        -0.78485
O         19.32406         8.48084         1.34519
O         13.22725        16.25184        -3.79146
H         13.97513        15.72833        -4.15023
O          8.88031        22.77468         0.94448
H          9.85544        22.72803         1.11375
O         18.99475        11.93964         2.65464
H         19.19029        12.84583         2.31571
O          8.73568         6.03177        -1.51305
H          9.54729         6.47463        -1.84440
O         10.60051        28.47212         4.11447
H         10.47073        27.49732         4.07359
O         19.92756        13.04867        -1.86859
H         19.13951        13.40385        -2.33066
O          8.68579        19.49377         0.61908
H          8.97289        18.61346         0.97597
O          4.19715         7.22846        -2.29858
H          4.25756         8.04408        -2.83935
O         12.10576         7.80481        -2.18268
H         12.78132         7.09180        -2.28689
O         19.82861        14.62543         1.41696
H         19.60888        15.52439         1.73906
H          1.92940         2.26960        -2.19921
H          0.07685         3.50661        -3.24802
H         -0.23248         5.92551        -2.92859
H         -0.73758         7.77202        -2.04465
H         -0.87947        10.20023        -1.81409
H         -1.05557        12.03877        -1.20856
H         -1.15820        14.46848        -1.31509
H         -1.10593        16.44094        -0.50226
H         -1.06915        18.76900         0.15891
H         -0.78817        20.49172         1.03111
H         -0.63967        22.70818         2.01759
H         -0.72939        24.80193         2.05171
H         -0.57496        27.03378         3.05407
H          0.87953        29.03745         3.76968
H          4.03444         2.28357        -0.79623
H          3.09902        30.10532         3.84496
H          6.21522         2.30950         0.26689
H          5.51574        30.05705         3.55027
H          8.59088         2.51542         1.28804
H          7.93377        30.10895         3.17054
H         10.22804         3.25429         3.00380
H         10.44542        30.08504         2.82526
H         12.46376         4.13991         4.29892
H         12.93878        30.01920         2.62203
H         14.65347         5.04841         5.22722
H         15.39336        30.05122         2.16893
H         16.79446         5.28852         6.00477
H         17.83930        30.02904         1.78512
H         18.90994         6.57781         6.11125
H         20.30042         8.35179         5.30745
H         20.80183        10.18132         3.73677
H         21.56770        10.82114         1.48341
H         21.85349        12.59286        -0.17733
H         21.99512        14.92585        -0.29278
H         21.88911        16.72370        -1.89975
H         21.80473        18.60228        -2.91836
H         21.77603        21.01418        -2.89458
H         21.83819        22.81969        -2.44370
H         21.98883        25.04801        -1.51439
H         22.13377        26.72593        -0.65232
H         22.29397        28.88728         0.50260
H         20.26369        30.00714         1.41556
