         277
 CSIRO Nanostructure Databank - Neutral Graphene Oxide Data Set
C        -11.32673         0.86748        -0.17930
C        -10.21917         1.65202        -0.73545
C         -9.04883         0.96153        -1.40823
C         -7.70729         1.57709        -0.99046
C         -6.39765         0.81880        -1.07708
C         -5.15416         1.56329        -1.49993
C         -3.86915         0.81009        -1.71665
C         -2.47384         1.53724        -1.60740
C         -1.43202         0.63981        -0.88936
C         -0.07142         1.27036        -0.57969
C          1.23715         0.66753        -1.02757
C          2.48689         1.58518        -1.10473
C          3.81663         0.80248        -1.06141
C          4.98014         1.42282        -0.38458
C          6.11390         0.59368         0.06492
C          7.37398         1.31715         0.53224
C          8.66935         0.56416         0.65176
C          9.95424         1.32542         0.63227
C         11.21589         0.56144         0.42011
C        -10.18999         3.00639        -0.61670
C         -9.00840         3.87229        -1.01055
C         -7.70601         3.07086        -0.89277
C         -6.41837         3.81579        -1.07631
C         -5.13902         3.05641        -1.24286
C         -3.89662         3.55074        -0.55272
C         -2.55591         2.93127        -0.88023
C         -1.36234         3.48100        -0.14340
C         -0.11673         2.64268         0.12796
C          1.15488         3.51915        -0.10349
C          2.45245         2.65842         0.00577
C          3.71559         3.50970         0.02567
C          4.98102         2.77651        -0.07649
C          6.22663         3.46083         0.19069
C          7.41740         2.78067         0.35385
C          8.70810         3.46188         0.29654
C          9.88723         2.78479         0.38515
C         -8.88815         5.08513        -0.10745
C         -7.68155         5.76941         0.06065
C         -6.43451         5.28794        -0.65433
C         -5.17148         5.70866         0.06704
C         -3.97302         4.84024         0.21290
C         -2.73936         5.42918         0.90702
C         -1.46518         4.64475         0.84058
C         -0.16198         5.33397         1.19866
C          1.15701         4.62499         0.93243
C          2.45406         5.32899         1.18007
C          3.69547         4.76384         0.57496
C          4.97203         5.47346         0.85650
C          6.17614         4.97358         0.04258
C          7.46118         5.66384         0.45842
C          8.72909         4.95810         0.02086
C         -7.59431         7.02984         0.66563
C         -6.30241         7.78914         0.84652
C         -5.08767         7.00701         0.43277
C         -3.72086         7.66075         0.36991
C         -2.78665         6.90571         1.36163
C         -1.41936         7.62207         1.42696
C         -0.14722         6.82116         1.35216
C          1.16987         7.44783         0.83389
C          2.39487         6.80628         1.50204
C          3.66667         7.57403         1.60989
C          4.98206         6.84531         1.44036
C          6.23539         7.71602         1.31826
C          7.46836         6.91412         0.95024
C         -6.23182         9.20185         0.30743
C         -5.04043         9.83605         0.26630
C         -3.77453         9.16556         0.56419
C         -2.61758         9.83690         0.78306
C         -1.35778         9.11277         1.09128
C         -0.07643         9.66234         0.68796
C          1.15311         9.00546         0.92037
C          2.34061         9.67924         1.05477
C          3.69375         9.08619         1.36403
C          4.74749         9.43955         0.33222
C          5.93599         8.82281         0.32609
C        -11.33955        -0.47165         0.00057
C        -10.23428        -1.36933        -0.50990
C         -8.88866        -0.67530        -0.30267
C         -7.70924        -1.40279        -0.85087
C         -6.39730        -0.67422        -0.97184
C         -5.18913        -1.48517        -1.35035
C         -3.94478        -0.75574        -1.90539
C         -2.58921        -1.47445        -1.63669
C         -1.28680        -0.72790        -1.57380
C          0.01891        -1.58373        -1.51207
C          1.28693        -0.72317        -1.63205
C          2.58715        -1.45068        -1.49892
C          3.86364        -0.66447        -1.36945
C          5.12826        -1.47345        -1.15669
C          6.26758        -0.81911        -0.43285
C          7.43336        -1.65780         0.00094
C          8.68934        -0.92179         0.38121
C          9.96170        -1.49121        -0.23943
C         11.22075        -0.75681         0.16163
C        -10.08908        -2.73667         0.18453
C         -8.93590        -3.44435         0.17265
C         -7.72338        -2.87857        -0.49607
C         -6.38890        -3.45058        -0.12931
C         -5.16735        -2.88513        -0.80877
C         -3.83477        -3.41378        -0.35545
C         -2.56993        -2.72939        -0.77854
C         -1.26755        -3.40959        -0.34596
C          0.04725        -2.66649        -0.45336
C          1.34139        -3.40009        -0.28172
C          2.68650        -2.74880        -0.66167
C          3.77354        -3.70266        -1.16586
C          5.10368        -2.98606        -1.36181
C          6.39519        -3.73826        -1.11833
C          7.56778        -3.02533        -0.55709
C          8.81024        -3.71323        -0.31636
C          9.98734        -2.98381        -0.11969
C         -8.84321        -4.83236         0.84117
C         -7.60951        -5.66162         0.41388
C         -6.33921        -4.81832         0.46524
C         -5.02902        -5.55690         0.48670
C         -3.77171        -4.84277         0.12754
C         -2.55457        -5.64731        -0.26096
C         -1.26534        -4.88694        -0.12205
C          0.02803        -5.65015        -0.11824
C          1.32696        -4.90782        -0.16057
C          2.64346        -5.51475         0.33405
C          3.75041        -5.14091        -0.71879
C          5.03515        -5.95619        -0.74872
C          6.32517        -5.26620        -1.18750
C          7.63296        -5.84602         0.18445
C          8.80503        -5.15390        -0.29121
C         -7.42881        -6.95552         1.19700
C         -6.26834        -7.65651         1.09999
C         -5.12781        -7.07193         0.27604
C         -3.77251        -7.73521         0.70398
C         -2.56178        -7.11811         0.01442
C         -1.29228        -7.80094         0.32817
C         -0.06224        -7.01580         0.49708
C          1.21675        -7.72659         0.84220
C          2.53997        -7.01790         0.66057
C          3.75037        -7.86019         0.50037
C          5.01304        -7.27974        -0.05257
C          6.26224        -7.92352         0.60325
C          7.46084        -7.25721         0.00778
C         -6.09294        -9.02497         1.58626
C         -5.00745        -9.77825         1.29735
C         -3.85450        -9.24292         0.46433
C         -2.50787        -9.89713         0.69176
C         -1.30047        -9.18243         0.64171
C         -0.01677        -9.85896         0.84023
C          1.17998        -9.21196         0.88810
C          2.48716        -9.97925         1.05831
C          3.60684        -9.34841         0.20210
C          4.94946       -10.04891         0.30950
C          6.13300        -9.42288         0.39495
O          4.05430         9.71554         2.61844
H          3.65261         9.17597         3.33548
O         -6.14786         0.13902         0.22361
O         -9.15757         0.44184        -2.55425
O          2.01389        -1.16555        -2.81392
O         -4.13666        -5.06488         1.53234
O          5.93208         5.30098        -1.29591
O          9.33488         0.90401         1.91444
O         -7.75343         2.24429         0.31224
O         -5.43243        -2.65128        -2.20136
O          9.88932         5.55668         0.59116
H          9.85299         5.43732         1.56225
O          6.22870        -0.86765        -1.89197
O         -1.63602         3.87771        -1.50747
O         -3.24466        -2.38524         0.49340
O          0.75064        -2.59313         0.80041
O          0.43412        -7.06862         1.89058
O          6.38716         0.80140         1.48343
O          0.80052        -5.57458        -1.35100
O          0.70165         0.38348         0.30886
O          3.39362        -7.37984         1.81844
O          5.19044         5.67938         2.29221
O         -6.48109         6.05686        -1.89111
O         -0.08524         5.95747         2.51686
O          4.08761         0.30914        -2.42549
O          7.94589        -1.65415         1.38976
O          2.87513         7.24110         2.80130
O         -7.94949        -2.41125        -1.85987
O         -1.84493        -1.11516        -2.85263
O         -5.74665         3.72347        -2.38335
O         -2.00148         1.73825        -2.93133
H         -2.68807         2.22409        -3.43764
O         -3.40667         6.94955         2.65003
H         -2.94823         6.29159         3.22072
O          4.93775        -7.23029        -1.49875
O          6.47133         8.31556         2.61057
H          6.42814         7.59644         3.27579
O          1.89258         4.38787         2.17039
O          0.00399        -2.47151        -2.65111
H          0.12729        -1.94935        -3.47342
O         -5.39680        -7.30786        -1.08453
O         -2.33769         4.52674         1.98882
O          5.93315        -3.33695        -2.49747
O         -2.70536        -6.57935        -1.35361
O          2.42911         2.24650        -2.36661
H          2.90574         1.68834        -3.02356
O         -4.27499         3.54901         0.86447
O         -6.33860        -3.64016         1.32086
O          9.78373        -1.18221        -1.67203
H         10.57315        -1.50911        -2.15296
O         -4.64222         1.35898        -2.83657
O        -10.50715        -1.60819        -1.88619
H         -9.72302        -2.04043        -2.30191
O          3.33722        -4.74272        -2.06003
O         -6.18259         7.90704         2.31229
H         -5.29268         7.56739         2.58183
O         -3.58948        -7.58233         2.11378
H         -3.59732        -6.61704         2.33182
O          2.32575       -11.33883         0.67952
H          2.29061       -11.36243        -0.30095
O         -1.38737        -3.96890         0.99549
O         -1.32977         8.57808         2.49637
O          3.15798        -9.46976        -1.17007
H          3.79794        -8.99542        -1.74793
O        -10.01375        -5.58268         0.54737
H         -9.86245        -6.00300        -0.32854
O         -2.04266         0.36257         0.38933
H         -1.34403         0.27211         1.07547
O          6.97813        -5.25214         1.27077
H          7.44934        -4.42542         1.51529
O         -3.18026         7.41271        -0.89532
O          1.27473         7.12463        -0.50356
O          3.01492        -4.82847         1.53490
H          3.26395        -5.50143         2.21133
O          1.06473         4.15694        -1.37943
H          1.22613         5.12719        -1.29596
O         -4.18551        -0.92678        -3.31448
H         -3.44069        -0.52346        -3.81103
O         -4.06664        -9.51338        -0.92900
H         -4.62082        -8.73792        -1.29144
O          6.75407        -5.74109        -2.36204
H          7.25601        -5.05886        -2.85651
O         -8.70606        -0.20075         0.94481
H         -7.75108         0.05111         1.08664
O         -7.80058        -6.03211        -0.97282
H         -7.01536        -6.60490        -1.23188
O          3.26467        -2.24114         0.57107
H          2.52476        -2.05445         1.19908
H         -5.70031         5.80306        -2.43355
O         -0.21230         2.36608         1.53354
H          0.58607         1.83814         1.78090
O          2.46341         1.95596         1.26834
H          2.53867         2.64588         1.97709
O          6.17206        -7.71232         2.01929
H          6.51463        -6.81209         2.22092
O         -9.16641         4.35201        -2.36440
H         -8.42714         4.97357        -2.55503
H         12.17626        -1.29906         0.08172
H         12.16406         1.09187         0.59975
H         10.83135         3.34279         0.28972
H          8.80659         5.09295        -1.09344
H          8.43531         7.40645         1.14548
H          6.70507         9.10437        -0.40822
H          4.52805        10.24491        -0.38436
H          2.28822        10.76951         1.22200
H         -0.08078        10.58445         0.08257
H         -2.59441        10.93765         0.80326
H         -4.99589        10.90270        -0.00661
H         -7.16119         9.74045         0.07061
H         -8.47885         7.42975         1.18738
H         -9.80748         5.50690         0.33009
H        -11.05301         3.51949        -0.16015
H        -12.18603         1.45286         0.18597
H        -12.21985        -0.94553         0.45981
H        -10.99657        -3.18704         0.61703
H         -8.80407        -4.67064         1.95124
H         -8.30851        -7.38986         1.69796
H         -6.91846        -9.46233         2.17038
H         -4.96205       -10.82264         1.64252
H         -2.46829       -10.99852         0.70281
H         -0.02304       -10.95664         0.92267
H          2.78322        -9.95022         2.13811
H          4.92122       -11.14617         0.22016
H          7.05887       -10.01758         0.42569
H          7.89464        -7.69431        -0.90348
H          9.58744        -5.72259        -0.81182
H         10.93371        -3.51251         0.06541
