         429
 CSIRO Nanostructure Databank - Neutral Graphene Oxide Data Set
C          2.31170         1.93204         3.39565
C          2.20218         3.34992         3.18519
C          3.42040         1.24032         2.99630
C          3.14659         4.05433         2.48696
C          1.83501         6.18179         2.47568
C          1.77536         7.57068         2.35384
C          3.04355         5.49779         2.26181
C          2.88499         8.31769         1.95194
C          1.51159        10.49171         2.00303
C          1.45909        11.84983         1.93000
C          2.86626         9.83043         2.02396
C          2.63562        12.62849         1.66215
C          1.67903        14.69526         2.63752
C          1.76455        16.04324         2.90550
C          2.73719        14.00089         1.96965
C          2.91611        16.78565         2.53906
C          3.00169        18.18708         2.82168
C          4.50626         1.91477         2.33389
C          4.26868         3.30935         1.79551
C          5.70716         1.29701         2.09982
C          5.54753         4.10148         1.69354
C          4.18318         6.24327         1.86562
C          4.11274         7.64940         1.66278
C          5.48695         5.56533         1.78725
C          5.24686         8.37339         1.11868
C          3.76137        10.46467         0.97089
C          3.68682        11.98504         0.78889
C          5.03348         9.76119         0.64021
C          5.03949        12.65970         0.83872
C          3.93600        14.72604         1.63649
C          4.00996        16.11728         1.90674
C          5.08350        14.04165         1.09346
C          5.18908        16.85578         1.56387
C          4.11151        18.90891         2.48329
C          5.23588        18.28796         1.82276
C          6.82710         2.00981         1.53155
C          6.73800         3.46112         1.41585
C          7.99938         1.35749         1.21252
C          7.89104         4.19261         0.91022
C          6.69412         6.36533         1.28317
C          6.47177         7.75816         0.84609
C          7.82512         5.61838         0.72378
C          7.54784         8.42654         0.18023
C          6.20319        10.56319         0.24153
C          6.20701        11.95899         0.38254
C          7.36268         9.82447        -0.36840
C          7.40934        12.71974         0.07937
C          6.28108        14.78063         0.80281
C          6.30622        16.19449         1.01935
C          7.40897        14.11020         0.25008
C          7.51834        16.94336         0.74258
C          6.31795        19.04210         1.43653
C          7.45630        18.45420         0.66578
C          9.12150         2.06645         0.66413
C          9.00867         3.48926         0.46417
C         10.31428         1.41112         0.36746
C         10.02042         4.16160        -0.42433
C          8.87035         6.33718         0.11680
C          8.76060         7.76512        -0.07294
C         10.06137         5.66096        -0.30634
C          9.91992         8.49062        -0.54574
C          8.64403        10.61989        -0.39959
C          8.61426        12.01878        -0.33319
C          9.86364         9.91952        -0.64200
C          9.83705        12.76041        -0.55117
C          8.55282        14.93501        -0.29321
C          8.65907        16.31839         0.33463
C          9.85021        14.17195        -0.40305
C          9.87392        17.12810        -0.10076
C          8.77357        19.11209         0.95290
C          9.95673        18.56682         0.54841
C         11.47600         2.12899        -0.08608
C         11.37204         3.51053        -0.39087
C         12.73453         1.49437        -0.15793
C         12.50011         4.24638        -0.82497
C         11.19347         6.37342        -0.69190
C         11.14976         7.81986        -0.75416
C         12.42727         5.66854        -1.01490
C         12.32752         8.55904        -1.10478
C         11.04839        10.64297        -0.96263
C         11.03272        12.07012        -0.89649
C         12.25791         9.93932        -1.25648
C         12.26662        12.80108        -1.04555
C         11.06691        14.88174        -0.47028
C         11.12482        16.25157        -0.03702
C         12.29195        14.18865        -0.72869
C         12.37902        16.72967         0.30325
C         11.11087        19.42784         0.38128
C         12.40944        18.93821         0.52993
C         13.86884         2.18810        -0.61529
C         13.73594         3.56757        -1.02325
C         15.16694         1.61342        -0.53486
C         14.86356         4.28155        -1.50393
C         13.59462         6.37387        -1.34791
C         13.67237         7.86276        -1.10446
C         14.80670         5.67599        -1.59950
C         14.76132         8.58442        -1.89568
C         13.38113        10.71702        -1.90945
C         13.45783        12.14655        -1.43222
C         14.71442        10.01185        -1.95866
C         14.67353        12.86951        -1.53560
C         13.53374        14.89778        -0.75980
C         13.59586        16.25253        -0.26297
C         14.69832        14.25757        -1.19978
C         14.76854        17.05481        -0.32925
C         13.66354        19.36428         0.08333
C         14.80606        18.48540        -0.01121
C         16.28554         2.26425        -1.07770
C         16.02750         3.43649        -1.98864
C         17.57322         1.75296        -0.96266
C         17.28128         4.22606        -2.35261
C         16.09397         6.46851        -1.63593
C         15.94361         7.89273        -2.12487
C         17.22428         5.74206        -2.34672
C         17.15408         8.58776        -2.57666
C         15.89961        10.77886        -2.05435
C         15.88918        12.17611        -1.85951
C         17.16579        10.11865        -2.44550
C         17.16904        12.91127        -1.74158
C         15.88685        15.09548        -1.46506
C         15.96391        16.46403        -0.89028
C         17.15185        14.39566        -1.90127
C         17.19353        17.11804        -0.81424
C         16.06241        19.10088         0.07588
C         17.26771        18.40272        -0.16783
C         18.72691         2.29711        -1.61567
C         18.60334         3.54851        -2.33372
C         19.94224         1.61566        -1.35887
C         19.73384         4.29553        -2.79580
C         18.47685         6.50366        -2.53635
C         18.46233         7.88951        -2.57182
C         19.64420         5.76118        -2.97893
C         19.68696         8.64798        -2.61062
C         18.46926        10.77251        -2.23609
C         18.48456        12.20443        -1.87924
C         19.66494        10.08177        -2.37189
C         19.74588        12.96660        -2.06514
C         18.46252        15.12628        -1.88997
C         18.45620        16.56619        -1.36108
C         19.75138        14.41954        -1.92527
C         19.75245        17.10318        -0.92980
C         18.51434        18.93611         0.20238
C         19.73482        18.27649        -0.08316
C         21.13070         1.78423        -2.11819
C         20.94448         3.70421        -3.18045
C         22.44342         1.59625        -1.77929
C         22.25111         4.39278        -3.18313
C         20.99341         6.56616        -3.02656
C         20.92022         7.97721        -2.65849
C         22.24789         5.83386        -2.85815
C         22.15543         8.65305        -2.39478
C         20.93146        10.79526        -2.26349
C         20.91695        12.24047        -2.16098
C         22.13584        10.09207        -2.29417
C         22.19969        13.00341        -1.94454
C         20.93792        15.17644        -1.93541
C         20.95554        16.52764        -1.39105
C         22.11678        14.40136        -2.56579
C         22.19135        17.27019        -1.07029
C         20.93598        18.76889         0.44767
C         22.17934        18.27834        -0.00647
C         23.49633         2.03665        -2.79168
C         23.55366         3.58451        -2.89067
C         24.83502         1.46514        -2.43610
C         24.64675         4.30754        -2.18292
C         23.40642         6.50427        -2.47125
C         23.35814         7.93093        -2.27784
C         24.63215         5.75143        -2.17425
C         24.57957         8.64201        -1.73505
C         23.43359        10.79151        -2.61489
C         23.44549        12.25248        -2.31544
C         24.66769        10.10082        -2.11503
C         24.66089        12.91850        -2.31441
C         23.47626        15.04577        -2.58243
C         23.38761        17.15178        -1.75352
C         24.66602        14.37532        -2.45496
C         24.64111        17.64275        -1.23261
C         23.36263        18.85512         0.48073
C         24.63971        18.52266        -0.05925
C         25.87489         2.15424        -1.87604
C         25.73380         3.60799        -1.61085
C         27.13924         1.42940        -1.78871
C         26.79072         4.37229        -0.99476
C         25.79245         6.45775        -1.83483
C         25.86262         7.93094        -2.15059
C         26.89352         5.79257        -1.22726
C         27.06364         8.64185        -1.57973
C         25.88198        10.78471        -2.08743
C         25.89730        12.20875        -2.26107
C         27.12039        10.07569        -1.72959
C         27.16207        12.95978        -2.20765
C         25.96506        15.03654        -2.49096
C         25.84020        17.11690        -1.65929
C         27.13436        14.44535        -2.11523
C         27.05257        17.19169        -0.76071
C         25.84297        19.04043         0.38258
C         27.10922        18.68286        -0.37547
C         28.07994         1.70184        -0.81192
C         27.81991         3.76623        -0.23975
C         29.45125         1.39591        -0.71146
C         29.08330         4.35425         0.02462
C         28.02369         6.51467        -0.77521
C         28.09403         7.92460        -0.97941
C         29.02406         5.85178         0.15874
C         29.35899         8.62799        -0.66422
C         28.28618        10.78284        -1.46621
C         28.40317        12.21741        -1.77885
C         29.48700        10.09328        -0.96035
C         29.55211        12.99532        -1.26288
C         28.45144        15.21995        -1.98462
C         28.35985        16.58322        -1.25272
C         29.56565        14.37340        -1.34871
C         29.53190        17.17485        -0.83855
C         28.38845        19.06576         0.29165
C         29.55900        18.43618        -0.06370
C         30.37957         2.18013         0.04229
C         30.25462         3.62062         0.30730
C         31.57118         1.52614         0.40521
C         31.45603         4.34066         0.71996
C         30.37399         6.50013         0.22759
C         30.33034         7.97106         0.25669
C         31.46861         5.81568         0.72174
C         31.52605         8.74828         0.72347
C         30.58157        10.89699        -0.37453
C         30.66867        12.26142        -0.66498
C         31.59740        10.27265         0.58265
C         31.89344        12.97096        -0.44252
C         30.79002        15.08923        -1.04224
C         30.80106        16.47196        -0.95282
C         31.99452        14.32874        -0.76258
C         32.09011        17.25365        -0.90477
C         30.81030        18.98384         0.37185
C         32.04674        18.45528         0.00964
C         32.65995         2.20089         0.99598
C         32.61261         3.64135         1.05687
C         33.75949         1.49657         1.52074
C         33.80065         4.33406         1.59853
C         32.66907         6.56751         1.05906
C         32.75354         7.95608         0.94428
C         33.82592         5.82913         1.62409
C         34.04690         8.61730         0.87929
C         32.98430        10.78264         0.29791
C         33.06940        12.28651         0.21698
C         34.13437        10.02228         0.47389
C         34.38054        12.75673        -0.35582
C         33.25555        15.01177        -0.71084
C         33.32174        16.40842        -0.65456
C         34.48587        14.19361        -0.72919
C         34.53586        17.07239        -0.37422
C         33.26292        19.04816         0.38755
C         34.51887        18.41807         0.13441
C         34.94393         2.15554         1.95694
C         35.05941         3.57087         1.79522
C         36.02089         1.45536         2.53464
C         36.30521         4.21360         1.89544
C         35.15754         6.55269         1.84114
C         35.21004         7.88697         1.11737
C         36.35535         5.64556         1.55148
C         36.49021         8.47706         0.89088
C         35.44868        10.63535         0.33898
C         35.59995        12.01459         0.03021
C         36.62826         9.85316         0.54813
C         36.84624        12.65688         0.01429
C         35.82605        14.85480        -0.65907
C         35.82414        16.37074        -0.46309
C         36.98489        14.07245        -0.16234
C         37.03418        16.98891         0.07265
C         35.73145        19.02160         0.51617
C         36.97985        18.32637         0.51238
C         37.20551         2.13297         2.87424
C         37.42864         3.47021         2.41215
C         38.17779         1.48812         3.71767
C         38.73442         4.03846         2.68864
C         37.49149         6.23113         1.07383
C         37.64811         7.65801         0.88483
C         39.24653         5.14968         1.98174
C         38.90963         8.25032         0.74070
C         37.92204        10.43354         0.48299
C         38.10721        11.83693        -0.01966
C         39.07379         9.65830         0.73037
C         39.31915        12.52921         0.55379
C         38.20023        14.71619         0.12443
C         38.27070        16.19970         0.09746
C         39.35549        13.95294         0.56725
C         39.48468        16.88326         0.81303
C         38.12565        18.94371         1.11413
C         39.28754        18.23487         1.37036
C         39.27217         2.16049         4.18679
C         39.58464         3.46426         3.67992
C         40.74628         4.17028         4.08661
C         40.35110         5.90775         2.42401
C         40.60952         7.21791         1.82586
C         41.07703         5.39774         3.53311
C         41.26127         8.28204         2.39693
C         40.33815        10.28972         1.10228
C         40.42893        11.75634         0.96322
C         41.27090         9.62962         1.89213
C         41.62316        12.43982         1.29942
C         40.51660        14.60336         1.09004
C         40.51067        16.01967         1.41096
C         41.65508        13.81990         1.38071
C         41.39655        16.57681         2.31930
C         40.29859        18.75206         2.24385
C         41.32390        17.94935         2.68458
O         16.25234        14.92048        -2.90289
O         16.94506         4.99775        -3.57206
O         20.91446         2.34505        -3.42336
O         23.24540         4.05752        -4.22251
O         40.03308         7.42927         0.55934
O         27.58709         2.49288         0.25628
O         25.92709        16.40435        -2.82874
O         30.03989         9.05871        -1.90455
O         14.20503         7.90439         0.22917
O          9.62185        17.40347        -1.45757
O         23.45949        16.40090        -2.93904
O         18.42971        16.26739        -2.79505
O         30.40223         8.44331         1.65869
O         33.44024         5.09791         2.84501
O          6.48068         6.13215         2.71698
O         12.46002        17.73749         1.26174
O         20.23270         6.22251        -4.22372
O         28.15749        12.50853        -3.21963
O         36.08879        15.72307        -1.78288
O          3.83294         9.78124        -0.30145
O         17.02105         9.45054        -3.74798
O         34.38707        13.12830        -1.76365
O         38.61766         5.45148         0.76623
O         17.90619        12.49863        -0.52322
O         39.38865        16.78044        -0.63698
O          8.20041        15.21398        -1.68948
H          8.73152        16.03322        -1.93729
O         27.07279        19.41229        -1.64793
H         27.16460        20.36741        -1.44919
O          7.22872        18.73963        -0.76151
H          8.00359        18.32595        -1.24158
O         28.45609         6.08075         1.51146
H         28.85730         6.89943         1.87898
O         32.26072        17.80072        -2.25530
H         32.19961        17.05645        -2.89110
O         16.49312         6.59052        -0.23788
H         15.71572         7.08107         0.19511
O         38.39468        11.66865        -1.46396
H         38.41291        12.56500        -1.86404
O         23.52877        10.67680        -4.09871
H         23.93936         9.80735        -4.30250
O         35.23188         6.90532         3.25148
H         34.69877         6.22723         3.73141
O          6.98504         9.62802        -1.78642
H          6.92848        10.51493        -2.20263
O         25.92175         8.06772        -3.60278
H         26.80258         7.76020        -3.90377
O         22.29846        13.24015        -0.49809
H         22.22673        12.37635        -0.04074
O         12.95617        10.81587        -3.32567
H         13.65073        11.31133        -3.81075
O         26.70706        16.41491         0.42736
H         27.37856        16.61191         1.11465
O         21.76848        14.24150        -3.96436
H         21.77725        15.12817        -4.38323
O         28.91208        15.50254        -3.33404
H         28.90727        14.64736        -3.81950
O         24.49794         8.56793        -0.27889
H         23.64195         8.95582        -0.00146
O         15.56185         2.82973        -3.23217
H         15.65809         3.51596        -3.93157
O         23.18243         1.49211        -4.08512
H         22.98198         2.24536        -4.68879
O         33.08813        12.75991         1.60644
H         32.37994        12.25757         2.08193
O          3.80769         3.13090         0.40408
H          2.99702         2.57970         0.43771
O          3.21460        12.23015        -0.57532
H          3.41940        11.40842        -1.08693
O          3.50099        10.18483         3.29712
H          2.99273         9.75810         4.01846
O          9.52508         3.90189        -1.80496
H          9.48382         2.92764        -1.91769
O         31.24175        10.82076         1.90669
H         30.64751        10.15695         2.33296
H          1.50467         1.41889         3.93657
H          1.34494         3.86668         3.64011
H          3.52830         0.17136         3.23266
H          0.93238         5.63479         2.77877
H          0.82540         8.06976         2.58823
H          0.58924         9.91876         2.16926
H          0.49464        12.35868         2.08211
H          0.77177        14.14841         2.92767
H          0.93319        16.55970         3.40678
H          2.14965        18.67624         3.31607
H          5.84864         0.24337         2.38703
H          4.16018        19.98722         2.69400
H          8.08005         0.26970         1.35683
H          6.32277        20.12542         1.63506
H         10.40231         0.33150         0.55794
H          8.76234        20.12858         1.38045
H         12.82918         0.44448         0.15583
H         10.94759        20.43402        -0.03747
H         15.29795         0.65685        -0.00597
H         13.81227        20.41397        -0.21331
H         17.71883         0.84173        -0.36124
H         16.11929        20.15317         0.39191
H         19.94333         0.86511        -0.55477
H         18.54493        19.88140         0.76359
H         22.73591         1.17662        -0.80843
H         20.91259        19.59913         1.16861
H         24.96992         0.40142        -2.68039
H         23.29489        19.60896         1.27879
H         27.33220         0.65284        -2.54304
H         25.87080        19.79541         1.18190
H         29.84305         0.50967        -1.23293
H         28.42497        19.99373         0.88423
H         31.64509         0.43988         0.25011
H         30.78047        19.90054         0.98156
H         33.72165         0.39786         1.55374
H         33.25050        19.99073         0.95545
H         35.91053         0.38932         2.78079
H         35.71098        20.04888         0.90999
H         37.96921         0.46299         4.05719
H         38.01748        19.96178         1.51666
H         39.95528         1.68944         4.90796
H         41.38016         3.73864         4.87401
H         41.95504         5.94586         3.90317
H         41.82672         8.11150         3.32540
H         42.06900        10.24662         2.33227
H         42.54318        11.88192         1.51741
H         42.59061        14.31273         1.67823
H         42.17428        15.95568         2.78445
H         40.21403        19.79171         2.59124
H         42.07501        18.35160         3.37837
