         210
 CSIRO Nanostructure Databank - Neutral Graphene Oxide Data Set
C         30.88665        31.57182         1.97609
C         31.02293        32.78595         1.54106
C         31.02108        35.92012         1.93725
C         31.13996        37.14032         2.16263
C         31.43500        40.21771         2.89116
C         31.49101        41.41451         3.24157
C         33.14846        28.93571         0.79706
C         32.09889        29.37475         1.29527
C         32.91292        31.64987        -0.12396
C         31.31637        30.55406         1.13340
C         32.97145        33.04373         0.25673
C         31.91314        33.70545         1.03195
C         33.17123        35.86135         0.97914
C         32.01532        35.10998         1.30146
C         33.31853        37.26003         1.24592
C         32.25841        37.99487         1.94309
C         33.67886        40.02619         2.14427
C         32.38709        39.32193         2.32447
C         33.74151        41.53016         2.34854
C         32.41298        42.39385         2.56693
C         33.84651        44.21355         2.55666
C         32.91027        43.66551         3.24206
C         35.59608        27.42973        -0.95865
C         35.28852        28.70333        -0.59694
C         33.95944        29.36206        -0.45683
C         35.33240        31.55196        -0.35894
C         34.06125        30.88302        -0.31151
C         35.33740        32.98976        -0.35405
C         34.17874        33.71303         0.06705
C         35.17024        35.92911        -0.54525
C         34.41551        35.13454         0.53000
C         35.44084        37.35738        -0.06768
C         34.48790        37.96159         0.78982
C         35.75860        40.17059         0.60227
C         34.74667        39.33364         1.28958
C         35.85689        41.57559         0.84546
C         34.95466        42.28140         1.78426
C         35.51366        44.50494         0.59368
C         34.82371        43.76098         1.68853
C         35.88525        45.93434         0.90887
C         37.90370        27.33142        -1.03495
C         36.62824        26.67315        -1.07406
C         37.87345        28.70906        -0.66641
C         36.60653        29.38465        -0.14921
C         37.78055        31.57803        -0.55286
C         36.56740        30.86713        -0.42915
C         37.76012        33.00843        -0.72853
C         36.52959        33.69753        -0.62798
C         37.67573        35.89392        -1.29574
C         36.43705        35.15355        -0.92959
C         37.65327        37.41190        -1.31169
C         36.54018        38.10330        -0.56881
C         37.71518        40.27812        -0.91785
C         36.64356        39.49393        -0.27564
C         37.83650        41.76475        -0.67188
C         36.82980        42.39986         0.20278
C         38.06204        44.52289        -0.08215
C         36.86565        43.80296         0.29104
C         38.16309        45.94478         0.03948
C         36.94448        46.47887         0.57780
C         40.45177        24.69490        -1.74316
C         39.38123        25.33738        -1.61106
C         40.39730        27.38183        -1.10318
C         39.14954        26.68574        -1.26871
C         40.34387        28.78559        -0.82395
C         39.08237        29.44589        -0.65958
C         40.24445        31.62634        -0.57016
C         39.04293        30.88678        -0.56526
C         40.21193        33.06101        -0.69069
C         38.99172        33.72121        -0.88004
C         40.18548        35.93823        -0.87186
C         39.01152        35.14540        -1.41016
C         40.22974        37.40532        -1.20445
C         38.94645        38.13755        -1.58956
C         39.94577        40.40869        -1.85477
C         38.93459        39.61423        -1.38345
C         40.22067        41.76100        -1.43510
C         39.13407        42.44535        -0.86108
C         40.40747        44.52045        -0.97502
C         39.22092        43.82931        -0.57273
C         40.40850        45.93928        -0.99757
C         39.28564        46.63490        -0.45594
C         40.44881        48.69472        -0.92863
C         39.45939        48.06204        -0.48819
C         43.04024        24.76923        -1.57587
C         41.72391        25.28764        -1.54622
C         42.87574        27.45169        -0.96035
C         41.66800        26.70775        -1.22205
C         42.82143        28.86044        -0.67467
C         41.55759        29.52855        -0.66695
C         42.70888        31.68327        -0.31645
C         41.50738        30.94482        -0.51607
C         42.66578        33.11861        -0.28491
C         41.45679        33.80395        -0.58103
C         42.63927        35.95231        -0.39602
C         41.46050        35.21608        -0.65407
C         42.69051        37.37450        -0.64384
C         41.58275        38.02152        -1.24580
C         42.87315        40.12588        -1.42153
C         41.81287        39.29179        -1.78758
C         42.84976        41.60268        -1.84146
C         41.53167        42.37120        -1.50398
C         42.85023        44.49249        -1.49105
C         41.58410        43.76113        -1.34553
C         42.85451        45.88485        -1.61687
C         41.52585        46.62765        -1.76731
C         42.91630        48.64419        -1.74825
C         41.64423        48.20894        -1.47084
C         44.05716        25.45616        -1.30959
C         45.33772        27.53704        -0.60456
C         44.16520        26.82155        -0.97196
C         45.27979        28.93521        -0.27736
C         44.01122        29.59577        -0.37204
C         45.12711        31.74192         0.23176
C         43.94848        31.00753        -0.15332
C         45.05690        33.17001         0.36441
C         43.84591        33.85239         0.03205
C         44.99810        36.02302         0.34365
C         43.82931        35.27511        -0.00672
C         45.05166        37.42885         0.11138
C         43.91108        38.09643        -0.48405
C         45.25114        40.18925        -0.77592
C         43.96491        39.47927        -0.81588
C         45.25031        41.65930        -0.91956
C         44.07796        42.33723        -1.30556
C         45.33187        44.45540        -1.30050
C         44.08633        43.75813        -1.38031
C         45.33198        45.87404        -1.54999
C         44.11926        46.57898        -1.72299
C         43.97670        47.96677        -1.96356
C         47.62778        27.64549         0.03170
C         46.64481        27.02753        -0.45765
C         47.68318        28.99548         0.41156
C         46.43511        29.64992         0.20086
C         47.49809        31.79450         0.95329
C         46.34330        31.06352         0.48386
C         47.39038        33.21577         1.13110
C         46.18694        33.91217         0.81005
C         47.20295        36.11033         1.45923
C         46.13897        35.35334         0.87311
C         47.23235        37.55141         1.27681
C         46.22288        38.14096         0.46679
C         47.55222        40.33010         0.31526
C         46.41581        39.49593        -0.09574
C         47.63282        41.67930        -0.11426
C         46.47917        42.34973        -0.67701
C         47.81074        44.41459        -0.88011
C         46.53771        43.74629        -0.97069
C         47.70024        45.78033        -1.23987
C         46.64631        46.40184        -1.50678
C         50.18751        29.24187         0.89910
C         48.75704        29.61805         1.24460
C         49.87359        31.90947         1.64386
C         48.72569        31.15323         1.24066
C         49.70925        33.29486         2.00545
C         48.46826        33.94115         1.70784
C         49.22091        35.87834         2.91794
C         48.28012        35.32827         2.03123
C         49.22431        38.07325         2.70403
C         48.32726        38.43254         1.68816
C         49.78256        40.45167         1.36269
C         48.55962        39.73573         1.10593
C         49.97269        41.75459         0.77481
C         48.86472        42.38892         0.10132
C         50.24646        44.26527        -0.18191
C         48.95128        43.74215        -0.38314
C         51.14582        29.91166         1.32562
C         52.17908        32.12309         2.24527
C         51.19468        31.27903         1.72209
C         51.97843        33.31483         2.61733
C         50.79090        34.06353         2.59829
C         51.40245        36.40893         3.54938
C         50.52849        35.37016         3.10050
C         51.38754        37.65341         3.46803
C         50.53105        38.61071         2.84041
C         52.00006        40.58393         2.14953
C         50.81710        39.81420         2.14849
C         52.21449        41.71037         1.63823
C         51.24886        42.45416         0.92317
C         51.25693        43.74998         0.35535
O         34.85311        41.84177         3.18630
O         46.27088        39.50101        -1.57304
O         40.88798        39.80503        -2.69808
O         38.05793        37.79059        -2.68845
O         37.22283        41.25856        -1.91346
O         34.81051        39.35952         2.76598
O         39.93857        36.90480         0.18418
O         36.76650        35.39292        -2.35007
O         48.85041        37.05185         3.59350
O         31.65129        31.02338        -0.22059
O         35.32530        35.07215         1.66415
H         34.84944        34.68619         2.42906
O         31.88008        42.70664         1.30265
H         31.15695        43.35890         1.40357
O         34.70850        44.45956        -0.58207
H         35.17727        44.92266        -1.30715
O         36.64235        29.26218         1.30650
H         36.72350        28.30955         1.52688
O         34.32245        36.00735        -1.70218
H         34.91140        36.11880        -2.48424
O         42.97318        41.64039        -3.28608
H         42.23054        41.10839        -3.65206
O         41.15776        46.54218        -3.16149
H         41.91961        46.83963        -3.70237
O         33.14636        29.02664        -1.56218
H         32.29060        29.50290        -1.46240
O         48.52102        29.20673         2.60106
H         48.43556        28.23009         2.61673
O         39.29943        35.01906        -2.82905
H         38.43481        34.89587        -3.28540
