         294
 CSIRO Nanostructure Databank - Neutral Graphene Oxide Data Set
C          1.10873         2.01351         0.02744
C          0.99849         3.38516        -0.13522
C          2.30866         1.30725        -0.09532
C          2.14773         4.29116        -0.47693
C          0.97342         6.35640         0.40018
C          0.92939         7.64203         0.02933
C          2.24106         5.55005         0.49595
C          2.13547         8.39978        -0.36734
C          1.00948        10.71526         0.17647
C          1.10934        11.97450         0.63295
C          2.16865         9.91737        -0.29653
C          2.43338        12.68940         0.81437
C          1.33010        14.85051         1.62417
C          1.47939        16.12142         2.07141
C          2.32490        14.23264         0.67650
C          2.66969        16.89144         1.80668
C          2.77024        18.23616         2.22738
C          3.53911         2.00392        -0.45118
C          3.46416         3.50397        -0.60002
C          4.85681         1.36090        -0.23647
C          4.76281         4.18153        -0.26923
C          3.47545         6.36597         0.11237
C          3.43683         7.66636        -0.29392
C          4.76461         5.62022         0.13684
C          4.65899         8.37939        -0.81023
C          3.54148        10.54075        -0.04311
C          3.47080        12.08446        -0.19932
C          4.66540         9.89227        -0.87046
C          4.83960        12.74342         0.00996
C          3.67848        14.90741         0.77204
C          3.79326        16.24482         1.17970
C          4.82139        14.24624         0.11226
C          5.04020        16.97727         1.07619
C          3.95053        18.94466         2.09376
C          5.12362        18.32305         1.56045
C          6.04187         2.01774        -0.42495
C          6.01004         3.49322        -0.81211
C          7.33289         1.36102        -0.33256
C          7.28259         4.17148        -0.34960
C          6.04138         6.45208         0.18673
C          5.98058         7.65681        -0.74545
C          7.31705         5.62865        -0.01019
C          7.25495         8.41541        -0.91932
C          5.92487        10.73196        -1.21849
C          6.08270        12.03654        -0.42263
C          7.24564         9.90242        -1.22162
C          7.35865        12.80335        -0.60075
C          6.11042        15.00406        -0.02613
C          6.21995        16.35482         0.58481
C          7.36999        14.27497        -0.39916
C          7.45468        17.00992         0.68312
C          6.35370        19.01449         1.53202
C          7.54541        18.36898         1.13031
C          8.53677         2.00815        -0.53684
C          8.53362         3.47213        -0.79241
C          9.82229         1.35352        -0.48944
C          9.81808         4.23153        -0.76505
C          8.56938         6.36200        -0.22576
C          8.49253         7.86971        -0.19140
C          9.79814         5.69247        -0.45325
C          9.78374         8.45891        -0.79623
C          8.52392        10.67005        -1.06497
C          8.54069        12.14052        -0.81369
C          9.76245         9.95822        -0.62239
C          9.83580        12.81336        -0.84823
C          8.67734        14.95683        -0.17702
C          8.74264        16.23668         0.62269
C          9.98048        14.18790        -0.23490
C          9.92628        17.05357         0.18962
C          8.81203        19.03105         1.13285
C          9.97155        18.41939         0.57554
C         11.02265         2.03426        -0.51432
C         11.08145         3.47974        -0.55932
C         12.33314         1.27402        -0.55765
C         12.26717         4.16344        -0.38883
C         11.02076         6.35803        -0.43478
C         11.02240         7.83308        -0.12390
C         12.31307         5.63794        -0.74513
C         12.28292         8.56423        -0.52121
C         11.05262        10.69474        -0.69375
C         11.02103        12.13084        -1.00908
C         12.30685         9.91274        -0.72254
C         12.28902        12.84504        -1.30661
C         11.08266        15.05699        -0.79995
C         11.00516        16.44571        -0.52444
C         12.32917        14.36128        -1.25805
C         12.04230        17.34771        -0.94285
C         11.19537        19.14926         0.39942
C         12.24133        18.61660        -0.34823
C         13.56503         2.09864        -0.23884
C         13.51941         3.45949        -0.14298
C         14.87972         1.33930        -0.27151
C         14.71251         4.23250         0.41156
C         13.45499         6.38956        -0.03559
C         13.58458         7.81020        -0.59458
C         14.79144         5.68443        -0.01458
C         14.71299         8.58531         0.10044
C         13.57344        10.63424        -0.81632
C         13.57942        12.05095        -1.26302
C         14.73306        10.02525        -0.38332
C         14.89531        12.77648        -1.15347
C         13.65535        15.05978        -0.92280
C         13.98735        16.27410        -1.79279
C         14.95153        14.24410        -0.95237
C         15.01403        17.14121        -1.07779
C         13.52041        19.38643        -0.68527
C         14.83971        18.56612        -0.64776
C         16.03284         2.08061         0.37429
C         16.05829         3.56575         0.12084
C         17.06004         1.43399         0.94696
C         17.12485         4.34884         0.85399
C         15.97929         6.36157        -0.02075
C         16.00953         7.84220        -0.22530
C         17.22831         5.72876         0.45656
C         17.29101         8.60201        -0.15939
C         15.98912        10.73567        -0.30714
C         16.08591        12.03519        -0.70061
C         17.15954        10.04530         0.34078
C         17.39380        12.73541        -0.95412
C         16.13924        14.88743        -0.73162
C         16.12199        16.34274        -0.32484
C         17.38383        14.13342        -0.26402
C         17.45318        17.10885        -0.43041
C         15.97116        19.07430         0.18522
C         17.17359        18.45905         0.23847
C         18.14750         2.12485         1.73382
C         18.19059         3.65072         1.54743
C         19.51580         1.48759         1.58930
C         19.50375         4.41656         1.64082
C         18.41639         6.45184         0.54781
C         18.62211         7.84583        -0.04005
C         19.54570         5.93489         1.40864
C         19.67332         8.65164         0.70803
C         18.46486        10.78915         0.20784
C         18.59572        11.94003        -0.51299
C         19.55110        10.01852         0.86587
C         19.90373        12.63888        -0.82818
C         18.72217        14.90230        -0.33949
C         18.63676        16.34119         0.24541
C         19.90200        14.00801         0.05273
C         19.84718        17.27941         0.08850
C         18.31907        19.11605         0.97026
C         19.62464        18.65429         0.36922
C         20.66964         2.16270         1.50280
C         20.74285         3.63877         1.20834
C         21.96147         4.34601         1.69771
C         20.92028         6.47154         1.09773
C         20.99522         7.98618         1.07905
C         22.02865         5.72355         1.51630
C         22.13599         8.42983         0.17301
C         21.06229        10.39738        -1.02428
C         21.09921        11.72927        -0.56352
C         22.15224         9.43513        -0.71361
C         22.25707        12.26614         0.01372
C         21.31539        14.52443        -0.08407
C         21.14481        16.97433        -0.36360
C         22.39230        13.64759         0.15683
C         22.10916        17.96275        -0.64539
C         20.59091        19.63707         0.12176
C         21.83000        19.30409        -0.42441
O          3.48993         2.71943        -1.82543
O          7.39002         4.56194         1.04362
O          1.94896         9.24376        -1.55303
O          8.05498        15.04315        -1.47681
O         15.40727        18.22582        -1.99081
O          6.73913         7.55118        -1.97852
O          8.07223        10.23274        -2.39091
O         18.78708         4.16197         2.85841
O         12.77186        17.06403        -2.05102
O         15.80536        16.25901         1.07856
O         10.31467        10.45773         0.62086
O          5.68060        12.04548         0.99992
O         12.20109        13.67239        -2.52597
O          4.34779         9.09548        -2.04187
O          5.15736        14.93708        -1.15026
O         21.71942        15.71407        -0.49174
O         16.65298         8.35691        -1.44881
O         14.39820        12.29503        -2.46015
O          9.13560         3.91303        -2.04233
O          4.81746         4.53706         1.15007
O          3.84581        10.18741         1.33355
H          4.70701        10.62168         1.56628
O         14.52386         8.59882         1.53450
H         15.30318         9.07874         1.92444
O         20.02335        13.00874        -2.20212
H         19.12700        13.17256        -2.58427
O         10.92143         7.99136         1.32359
H         10.93980         8.96859         1.49374
O         13.40188        15.54494         0.41442
H         14.28309        15.78516         0.86699
O          5.71924        11.21180        -2.55264
H          5.35593        10.46840        -3.08459
O         17.06969        13.85900         1.14963
H         16.54524        14.66600         1.44594
O         16.28650         3.71800        -1.31810
H         17.22726         3.50966        -1.49988
O         21.37165         8.39401         2.44005
H         20.74530         7.90401         3.02797
O         17.76837         1.85200         3.11371
H         18.23551         2.51356         3.67277
O         20.35878        10.70508         1.70279
H         20.94324        10.05203         2.17619
O          8.96574        15.83847         2.03855
H          9.10742        16.66626         2.54696
O          2.88744        12.49250         2.16462
H          3.00858        11.52115         2.29974
O         13.03746         6.41905         1.35499
H         13.48350         7.18783         1.79197
O         20.11936        10.03710        -1.88315
H         19.98227         9.04398        -1.91818
O          6.07818         6.99829         1.52207
H          6.19784         6.23622         2.13089
O         20.68255         3.76538        -0.26080
H         21.55113         3.48487        -0.61854
O         16.86579         9.94098         1.77578
H         16.92514        10.84326         2.15849
O          5.99934         3.60555        -2.24586
H          5.17736         3.15871        -2.56487
O         19.11939         7.63252        -1.41483
H         18.30480         7.51677        -1.96636
O         13.96933         7.69715        -1.97682
H         14.13237         8.59571        -2.33283
O         15.19572         1.14376        -1.66813
H         15.42866         2.03259        -2.02673
O          1.88959         4.86623        -1.78071
H          2.02636         4.14925        -2.43949
O         14.47899        15.88999        -3.04148
H         14.80795        16.69381        -3.49760
O         13.62851        20.51210         0.18042
H         13.67184        20.19520         1.10595
O         17.43139        12.92968        -2.39414
H         16.53261        13.16534        -2.71327
O          1.82220        14.50994        -0.67893
H          1.90573        15.47441        -0.83820
O         12.51831         5.66225        -2.17764
H         11.68104         5.39514        -2.61244
O         10.43335        13.85583         1.11554
H         10.15022        14.58556         1.72426
O         18.35678        16.22978         1.66282
H         17.34871        16.23583         1.73399
O          2.33019         5.08323         1.84829
H          3.24947         4.75045         1.99381
O          3.05100        12.30765        -1.54447
H          2.68003        13.22032        -1.61810
O         19.77392        13.62588         1.44123
H         18.81845        13.74081         1.68467
O         14.54511         4.23079         1.85195
H         13.81922         4.87656         2.04757
O         17.86732        17.29992        -1.79333
H         17.17616        17.85315        -2.23202
O         19.25542         6.59003         2.70620
H         18.70853         5.92878         3.20507
O         12.27987         0.13266         0.31456
H         12.14625         0.45426         1.22979
O          9.86005         8.15371        -2.19485
H          9.14289         8.65137        -2.65994
O         18.29063        18.81653         2.37453
H         18.40476        17.83454         2.45392
O          8.34366         8.33421         1.16493
H          9.13546         8.01901         1.66850
H          0.19836         1.44628         0.27383
H          0.00128         3.84338        -0.07278
H          2.34210         0.22828         0.10868
H          0.04409         5.84779         0.69649
H         -0.03770         8.16333        -0.02253
H          0.01262        10.26101         0.07004
H          0.19071        12.50057         0.93415
H          0.41220        14.29491         1.86308
H          0.69406        16.58422         2.68857
H          1.89264        18.71505         2.68594
H          4.85860         0.29357         0.03501
H          4.01186        19.98603         2.44106
H          7.33598         0.28209        -0.11092
H          6.39141        20.05840         1.87756
H          9.84402         0.25532        -0.41469
H          8.86611        20.07706         1.46739
H         12.46430         0.86066        -1.59741
H         11.28041        20.17017         0.80303
H         14.75408         0.32737         0.18609
H         13.41253        19.78920        -1.72623
H         17.02250         0.33742         1.05163
H         15.84351        20.05037         0.67968
H         19.54235         0.39571         1.73353
H         18.23718        20.22962         0.87711
H         21.62284         1.60894         1.50495
H         22.78058         3.79468         2.17941
H         22.98625         6.23657         1.70235
H         23.06128         7.83829         0.27368
H         23.08890         9.61389        -1.27153
H         23.13008        11.61723         0.18517
H         23.39375        14.07643         0.29761
H         23.09103        17.64336        -1.01893
H         20.35544        20.68631         0.34990
H         22.57896        20.07650        -0.64226
