         210
 CSIRO Nanostructure Databank - Neutral Graphene Oxide Data Set
C         30.54078        31.98314        -1.15611
C         30.59602        33.15552        -0.69286
C         30.49199        36.08089         0.44487
C         30.47688        37.26929         0.85276
C         30.44686        40.26380         1.74991
C         30.36962        41.53240         1.78962
C         33.01578        29.38158        -2.22008
C         31.93244        29.96846        -2.05284
C         32.92018        32.03930        -1.37613
C         31.70703        31.28113        -1.52586
C         32.92234        33.36410        -0.82249
C         31.68015        34.01297        -0.47094
C         32.82098        36.10542         0.23945
C         31.63788        35.34265         0.06315
C         32.81291        37.44132         0.72089
C         31.59279        38.11518         1.03833
C         32.80329        40.22916         1.55209
C         31.59255        39.48421         1.45444
C         32.80495        41.69574         2.01921
C         31.41257        42.43352         1.73917
C         32.69081        44.33723         1.02837
C         31.62361        43.76123         1.35413
C         35.69457        27.88515        -2.23107
C         35.58270        29.29050        -2.13222
C         34.32757        30.02077        -2.34636
C         35.49456        32.15343        -1.41678
C         34.21838        31.48944        -1.85307
C         35.40764        33.40652        -0.63026
C         34.15660        34.04447        -0.51452
C         35.26001        36.00676         0.65326
C         34.13463        35.53253        -0.24136
C         35.26390        37.46095         0.94367
C         34.07055        38.14847         0.97385
C         35.28078        40.25313         1.42322
C         34.04666        39.56894         1.33573
C         35.33749        41.73363         1.71298
C         34.01676        42.43100         1.46749
C         35.20531        44.40688         0.58304
C         34.00934        43.74941         1.02150
C         35.33283        45.70492         0.05339
C         37.95311        27.69001        -1.50341
C         36.72206        27.20686        -1.99544
C         37.93803        29.11254        -1.31795
C         36.76692        29.88530        -1.63289
C         37.93293        31.89947        -0.61944
C         36.79546        31.34745        -1.38270
C         37.82192        33.20504        -0.07899
C         36.61020        33.94293        -0.07447
C         37.78847        36.00451         0.89892
C         36.54399        35.24018         0.66180
C         37.80383        37.37302         1.16109
C         36.50593        38.05777         1.57003
C         37.73591        40.24799         1.36595
C         36.52532        39.55945         1.41310
C         37.74886        41.66052         1.04585
C         36.53456        42.38010         1.05308
C         37.68746        44.35599         0.12919
C         36.48049        43.72396         0.59860
C         37.67542        45.69747        -0.45864
C         36.37493        46.24657        -0.39424
C         40.22434        24.78465        -1.06254
C         39.23715        25.52330        -1.30739
C         40.33412        27.54153        -0.80358
C         39.10943        26.92248        -1.22054
C         40.33383        28.96674        -0.61273
C         39.14250        29.73431        -0.81973
C         40.33562        31.75887        -0.03491
C         39.12349        31.12838        -0.48121
C         40.32256        33.11413         0.36874
C         39.01933        33.75726         0.59287
C         40.30363        35.94619         1.02593
C         39.02681        35.23445         1.00004
C         40.27962        37.36559         1.18647
C         39.04276        38.06676         1.30044
C         40.28570        40.30095         1.45803
C         38.99924        39.51986         1.77864
C         40.23565        41.63959         0.81721
C         38.96400        42.32500         0.66605
C         40.20883        44.42550        -0.03455
C         38.91512        43.66093         0.20685
C         40.09294        45.57074        -1.04160
C         38.81182        46.23962        -1.07820
C         39.83740        47.91938        -2.55106
C         38.91532        47.39875        -1.90395
C         42.70281        24.65923        -0.34340
C         41.47314        25.29464        -0.65552
C         42.73845        27.43227        -0.21483
C         41.51956        26.75645        -0.54900
C         42.76988        28.87087        -0.07514
C         41.55169        29.61506        -0.21107
C         42.76714        31.69527         0.37859
C         41.55954        31.02116         0.02721
C         42.76656        33.10195         0.62748
C         41.52313        33.80590         0.66928
C         42.76667        35.91806         1.03074
C         41.51597        35.22549         0.92756
C         42.75655        37.35806         1.11500
C         41.54727        38.04484         1.22749
C         42.76173        40.19407         0.74575
C         41.56956        39.51887         1.28275
C         42.67923        41.55862         0.47542
C         41.41676        42.23676         0.39158
C         42.59438        44.26740        -0.68051
C         41.31976        43.48000        -0.47232
C         42.51956        45.43846        -1.42482
C         41.20803        46.01373        -1.75024
C         42.41676        47.91417        -2.76877
C         41.10275        47.15136        -2.85079
C         43.73537        25.29074        -0.03057
C         45.17080        27.32830         0.27926
C         43.96166        26.68977         0.04068
C         45.30087        28.83948         0.05386
C         43.98233        29.56027         0.21994
C         45.20245        31.66551         0.79982
C         43.99211        30.95734         0.45703
C         45.23311        33.05815         0.94912
C         43.99534        33.79979         0.87031
C         45.24954        35.93795         1.41710
C         43.98327        35.20261         1.04022
C         45.23590        37.38483         0.97722
C         44.02090        38.07935         0.97442
C         45.23401        40.19833         0.54987
C         44.00918        39.49317         0.73658
C         45.20664        41.62228         0.31823
C         43.92530        42.32135         0.37399
C         45.12710        44.34740        -0.68627
C         43.87639        43.78366        -0.17962
C         45.01248        45.56824        -1.45123
C         43.76617        46.12206        -1.75863
C         43.46827        47.32068        -2.47109
C         47.56088        27.34589         0.76990
C         46.43641        26.81230         0.59290
C         47.67324        28.77237         1.01244
C         46.47372        29.46268         0.79274
C         47.77033        31.64595         1.22413
C         46.41135        30.88174         1.10826
C         47.74059        33.08972         0.97469
C         46.50151        33.78697         1.04229
C         47.73618        35.92621         0.93696
C         46.51755        35.20134         1.05355
C         47.70692        37.36434         0.88459
C         46.47510        38.07757         0.81048
C         47.70970        40.24223         0.58939
C         46.47550        39.50368         0.63729
C         47.65074        41.72130         0.51249
C         46.37700        42.36590         0.13100
C         47.63854        44.34524        -0.70213
C         46.36065        43.72241        -0.35081
C         47.40356        45.54169        -1.44434
C         46.31972        46.07032        -1.75572
C         50.21144        28.89271         0.98971
C         48.92650        29.46365         1.13467
C         50.21092        31.57178         0.66812
C         49.00514        30.88258         1.01706
C         50.17454        33.01053         0.50797
C         48.95863        33.76631         0.72960
C         50.18446        35.88584         0.43665
C         48.96919        35.20187         0.71699
C         50.27895        37.34641         0.64389
C         48.95130        38.13658         0.89528
C         50.20701        40.30065         0.46794
C         48.94275        39.58619         0.61621
C         50.21340        41.70243         0.46170
C         48.95424        42.49424         0.38290
C         50.11256        44.08070        -1.01043
C         48.87261        43.75176        -0.43735
C         51.30915        29.43536         0.70998
C         52.52489        31.62846         0.02675
C         51.44446        30.81975         0.45716
C         52.42519        32.86405        -0.15927
C         51.33011        33.72928         0.07161
C         52.36751        35.99647        -0.45705
C         51.31751        35.14482        -0.01094
C         52.37320        37.24967        -0.44415
C         51.41323        38.13165         0.09887
C         52.40227        40.33464        -0.47609
C         51.40822        39.52944         0.10929
C         52.57642        41.41000        -1.12861
C         51.94901        42.59758        -0.69816
C         51.19830        43.56228        -1.39757
O         38.85863        34.14337         1.99629
O         51.40230        42.42750         0.65988
O         41.21837        40.16437         2.57875
O         48.23981        42.47095         1.65479
O         36.45399        32.21776        -2.51764
O         49.87269        37.76769         1.97378
O         34.28437        31.11834        -3.27103
O         47.00821        31.23299         2.39378
O         35.58745        35.19504         1.82390
O         43.91124        43.48702         1.25014
O         45.23600        35.97986         2.89003
H         46.05343        36.43656         3.18289
O         40.59514        45.00572         1.23045
H         39.89567        45.62723         1.52022
O         41.01514        46.53601        -4.10543
H         40.92241        47.22132        -4.79812
O         35.58396        41.84248         3.17451
H         35.94787        42.73527         3.35640
O         36.36450        37.76564         2.99238
H         36.23466        36.79191         3.07427
O         32.90866        41.67405         3.45951
H         33.87244        41.60420         3.68988
O         40.91690        42.99127        -1.78835
H         41.64760        42.45721        -2.16293
O         45.62999        28.98357        -1.37449
H         46.43571        28.44870        -1.54543
O         34.41838        36.17154        -1.53280
H         33.74914        35.86384        -2.18030
O         38.88986        39.42975         3.22360
H         39.80700        39.48803         3.58465
