         324
 CSIRO Nanostructure Databank - Neutral Graphene Oxide Data Set
C          1.17927         1.93066         0.11649
C          1.15455         3.29529        -0.19529
C          2.38281         1.29248         0.37764
C          2.33706         4.06454        -0.18367
C          1.32809         5.91365        -1.44432
C          1.35781         7.21629        -2.02455
C          2.33941         5.45927        -0.63728
C          2.37481         8.08515        -1.75326
C          1.16879        10.96984        -1.18499
C          1.17964        12.23106        -0.47799
C          2.33730        10.35782        -1.49465
C          2.34317        12.79558        -0.03819
C          1.24150        14.82971         0.94732
C          1.28354        16.14959         1.35412
C          2.40561        14.16122         0.47908
C          2.48519        16.89711         1.25732
C          2.54636        18.28150         1.59995
C          3.59172         2.03812         0.39641
C          3.54631         3.44867         0.19330
C          4.84307         1.38904         0.55084
C          4.78774         4.23403         0.35785
C          3.45967         6.36857        -0.26826
C          3.47717         7.79025        -0.80835
C          4.77505         5.74930         0.12902
C          4.77678         8.56178        -0.79463
C          3.68072        10.92358        -1.17099
C          3.61538        11.97247        -0.05141
C          4.82442         9.96162        -0.84676
C          4.87939        12.78918        -0.15436
C          3.63069        14.85778         0.43556
C          3.66233        16.24822         0.77610
C          4.86300        14.17389         0.05402
C          4.84306        17.01363         0.58434
C          3.71288        18.99538         1.45996
C          4.89620        18.37969         0.94181
C          6.06176         2.08846         0.39958
C          6.06361         3.52200         0.26094
C          7.28746         1.39311         0.41166
C          7.26018         4.24001         0.10877
C          6.03437         6.40901        -0.26702
C          6.00963         7.82639        -0.61498
C          7.24792         5.67810        -0.14770
C          7.23519         8.51953        -0.74943
C          6.06131        10.66276        -0.66709
C          6.08125        12.09912        -0.45987
C          7.28661         9.95011        -0.74183
C          7.31243        12.81691        -0.47106
C          6.07086        14.90575        -0.10654
C          6.00675        16.37525        -0.04350
C          7.29400        14.24215        -0.33300
C          7.30908        17.16109        -0.08481
C          6.12977        19.10807         0.88255
C          7.33187        18.52570         0.49140
C          8.50952         2.08231         0.27627
C          8.50001         3.51654         0.11237
C          9.73108         1.37239         0.28965
C          9.73279         4.19720        -0.02790
C          8.50432         6.32212        -0.37008
C          8.48483         7.73139        -0.83072
C          9.72768         5.62044        -0.26148
C          9.77897         8.46248        -0.99632
C          8.52143        10.69630        -0.77513
C          8.55020        12.09776        -0.64284
C          9.77718         9.97281        -1.08355
C          9.80237        12.84324        -0.52929
C          8.54433        14.99531        -0.31127
C          8.55311        16.38350        -0.14384
C          9.77264        14.23266        -0.29729
C          9.79653        17.17521        -0.10549
C          8.58001        19.20200         0.63394
C          9.80341        18.58777         0.35241
C         10.96941         2.04284         0.20343
C         10.96318         3.47801         0.06380
C         12.19889         1.34228         0.23722
C         12.20254         4.16981         0.04465
C         10.99942         6.28974        -0.35022
C         10.99732         7.77505        -0.45655
C         12.19085         5.59419        -0.15654
C         12.27254         8.53478        -0.41450
C         11.07518        10.73401        -1.06115
C         11.07233        12.15912        -0.63009
C         12.35005         9.95451        -0.88897
C         12.29232        12.81132        -0.43020
C         10.99336        14.93115         0.13802
C         11.08403        16.41015         0.03470
C         12.34645        14.19438         0.06282
C         12.29243        17.12116         0.53977
C         11.04950        19.25811         0.51213
C         12.30160        18.60566         0.51138
C         13.43847         2.02485         0.25383
C         13.42822         3.46190         0.21099
C         14.68158         1.33826         0.30202
C         14.66438         4.16757         0.42306
C         13.51218         6.25992        -0.21308
C         13.57417         7.79584        -0.39125
C         14.67326         5.58514         0.34330
C         14.74850         8.52296         0.01144
C         13.59964        10.67323        -0.53833
C         13.56608        12.14783        -0.45932
C         14.64426         9.98040         0.30697
C         14.75761        12.82558        -0.28574
C         13.55814        14.98143        -0.08785
C         13.61035        16.35601         0.38889
C         14.80270        14.31526        -0.63126
C         14.80453        17.21009         0.10196
C         13.53749        19.28019         0.64693
C         14.79965        18.63689         0.49529
C         15.90968         2.03262         0.45004
C         15.86810         3.45249         0.62922
C         17.17377         1.37936         0.42539
C         17.11552         4.15122         0.98194
C         15.83687         6.35716         0.78840
C         15.89666         7.84367         0.58940
C         17.12931         5.65728         1.07218
C         17.20200         8.54538         0.60795
C         15.98442        10.66374         0.22191
C         15.96578        12.09438         0.04808
C         17.16493         9.97995         0.48272
C         17.10478        12.81813         0.36518
C         16.01600        15.00690        -0.03691
C         16.12723        16.48902        -0.09108
C         16.96421        14.22568         0.54956
C         17.38693        17.27034         0.04035
C         16.03150        19.30238         0.51067
C         17.30262        18.68431         0.22444
C         18.40576         2.08350         0.57880
C         18.39546         3.46714         0.84408
C         19.67029         1.40635         0.49683
C         19.63030         4.20182         1.31178
C         18.41891         6.39260         0.89724
C         18.40212         7.84430         0.71410
C         19.59957         5.69786         1.00555
C         19.67002         8.55235         0.56288
C         18.44995        10.70676         0.55588
C         18.45235        12.19801         0.50617
C         19.69087         9.94690         0.30840
C         19.53052        12.86367        -0.35875
C         18.88731        15.23835         0.36695
C         18.67504        16.60100        -0.09673
C         19.79263        14.35739        -0.15239
C         19.68070        17.11508        -0.89242
C         18.51144        19.46644         0.38097
C         19.71129        19.13408        -0.28049
C         20.89315         2.07928         0.62405
C         20.91514         3.52150         0.88182
C         22.11565         1.37390         0.45450
C         22.10262         4.19734         0.90505
C         20.87965         6.44273         1.07342
C         20.89582         7.85928         0.66108
C         22.18780         5.67464         1.09332
C         22.12163         8.53616         0.44419
C         20.89126        10.63767         0.05360
C         20.86628        12.02957        -0.58413
C         22.11234         9.92813         0.10813
C         22.14925        12.82781        -0.36606
C         20.94424        14.93086        -0.88914
C         20.94798        16.40449        -1.14189
C         22.20845        14.20468        -0.65460
C         22.22714        17.24365        -1.23238
C         21.06004        19.30047         0.07678
C         22.20496        18.61450        -0.50171
C         23.37168         2.00310         0.57569
C         23.37407         3.44631         0.89831
C         24.59334         1.32880         0.41971
C         24.67490         4.20087         0.76207
C         23.41517         6.40710         0.67314
C         23.35896         7.77427         0.42136
C         24.66850         5.67644         0.54184
C         24.58093         8.50635         0.02559
C         23.36396        10.66597        -0.06359
C         23.35132        12.08066        -0.25722
C         24.57628         9.97075         0.04478
C         24.60798        12.78977        -0.54017
C         23.42948        14.96704        -0.59963
C         23.45424        16.43080        -0.74975
C         24.62502        14.25600        -0.47973
C         24.63499        17.11463        -0.61120
C         23.42594        19.23099        -0.38410
C         24.69376        18.60301        -0.92297
C         25.85352         2.01283         0.39127
C         25.87109         3.41297         0.42938
C         27.09211         1.29171         0.15752
C         27.13463         4.14749         0.37723
C         25.85791         6.31900         0.30119
C         25.91026         7.77158         0.05657
C         27.08544         5.56433        -0.14346
C         27.17328         8.49020         0.21588
C         25.85450        10.68086         0.15621
C         25.92662        12.06172        -0.37214
C         27.19915         9.93287         0.28887
C         27.20800        12.79487        -0.24372
C         25.88120        14.92340        -0.13222
C         25.86123        16.45177        -0.13660
C         27.18392        14.24157        -0.23095
C         27.15270        17.14646        -0.18866
C         25.92898        19.27343        -0.39060
C         27.13453        18.58854        -0.20105
C         28.31564         1.91827         0.02584
C         28.42101         3.37855         0.21101
C         29.54149         1.23797        -0.33075
C         29.62489         4.08547        -0.26529
C         28.40015         6.26929         0.16837
C         28.43718         7.75465         0.32933
C         29.61236         5.55332        -0.35338
C         29.73752         8.51273         0.18014
C         28.45593        10.65330        -0.04546
C         28.39776        12.08909        -0.22307
C         29.66482         9.97318        -0.10928
C         29.65034        12.83469        -0.59606
C         28.36867        14.97844        -0.14556
C         28.35448        16.42642        -0.08214
C         29.64593        14.29048        -0.19725
C         29.59796        17.13503         0.02319
C         28.36334        19.27294         0.00565
C         29.58077        18.56920         0.10595
C         30.70458         1.91900        -0.56003
C         30.77238         3.37000        -0.55006
C         32.03263         4.07839        -0.67254
C         30.93146         6.28806        -0.51613
C         31.00864         7.76110        -0.16760
C         32.13035         5.43084        -0.54581
C         32.12704         8.56588        -0.70593
C         30.91692        10.68971        -0.33598
C         30.92759        12.08558        -0.33147
C         32.10814         9.92035        -0.64865
C         32.13074        12.87459        -0.26598
C         30.84151        14.98239        -0.09482
C         30.83837        16.43285         0.06786
C         32.09255        14.23509        -0.16041
C         32.02593        17.16984         0.23602
C         30.81080        19.26699         0.27579
C         32.00411        18.56885         0.34804
O         25.70832        15.70207         1.11807
O          6.46158        17.03815        -1.27652
O         28.47111         6.81246         1.50237
O          3.02412         7.49549         0.56218
O          4.76369         5.20076         1.48103
O         18.69106        11.56663         1.78417
O         21.60679         6.18080         2.33366
O          2.35450         9.30210        -2.43359
O         11.47046         8.40777         0.80392
O         24.16453         3.80194         2.08856
O         30.70442         8.13067         1.21432
O         15.49929         7.26627         1.92989
O          9.18482         7.83663        -2.16032
O         26.48425        10.51222         1.46286
O         13.39512        10.15459        -1.89070
O         20.99073        11.76925        -1.96889
O         12.96299        16.57921         1.69908
O         17.96343        14.81885         1.32833
O         17.04462         4.89020         2.31338
O         27.98789         3.89688         1.53106
O         10.67949        16.91838        -1.26724
O         11.59851        14.38502         1.32947
O         19.54109        18.35560        -1.47001
O         20.78585        15.45536        -2.27097
O         13.77727         6.89431        -1.52915
O         25.21450         8.05009        -1.25428
O         15.33247        17.00403        -1.23255
O         25.35393        12.20626        -1.70214
O         30.04174         6.06234        -1.66651
O         10.39710        10.46832        -2.32694
O         14.80134        14.40923        -2.08091
H         15.65942        14.06974        -2.41138
O         22.40444        17.52536        -2.64169
H         22.07561        16.73503        -3.13180
O         26.95906         5.44811        -1.58768
H         26.60520         6.29430        -1.94079
O         19.60966         4.07587         2.76950
H         18.75230         4.46365         3.07366
O         24.76263        18.78750        -2.36824
H         23.92501        18.41579        -2.74981
O          4.06962        11.61427        -2.39374
H          3.97290        10.98317        -3.13825
O         14.17695        10.10718         1.68854
H         14.70323         9.49176         2.24564
O         29.59139        12.87538        -2.09070
H         30.38352        13.36985        -2.39385
O          3.64691        11.23073         1.19915
H          3.54840        11.86792         1.93671
O         18.85544        12.88917        -1.64338
H         19.55260        12.55696        -2.29197
H          0.24132         1.35836         0.11711
H          0.19238         3.76709        -0.43456
H          2.41597         0.20896         0.55801
H          0.49345         5.25323        -1.71350
H          0.56947         7.51567        -2.72611
H          0.21754        10.57303        -1.56262
H          0.22975        12.77977        -0.40684
H          0.29297        14.27841         1.01018
H          0.37451        16.63907         1.73224
H          1.63880        18.77409         1.97805
H          4.86752         0.30091         0.70855
H          3.74731        20.05888         1.73720
H          7.28955         0.30024         0.53370
H          6.13711        20.14338         1.25648
H          9.71242         0.27768         0.39462
H          8.57412        20.23540         1.01293
H         12.18653         0.24385         0.29460
H         11.02937        20.34541         0.68451
H         14.68882         0.24002         0.24209
H         13.52447        20.37430         0.76833
H         17.20612         0.29087         0.27102
H         16.03911        20.37788         0.74377
H         19.67495         0.32323         0.30415
H         18.49819        20.30954         1.08799
H         22.07518         0.29609         0.23465
H         21.29917        20.06850         0.82982
H         24.58136         0.24051         0.25620
H         23.48989        20.22005         0.09623
H         27.03309         0.19975         0.03166
H         25.93649        20.37429        -0.36711
H         29.52812         0.13999        -0.39880
H         28.36811        20.37208         0.04785
H         31.62272         1.36187        -0.79797
H         32.95050         3.47574        -0.74436
H         33.12050         5.90443        -0.47444
H         33.01308         8.04386        -1.09601
H         32.99530        10.47210        -0.99192
H         33.10460        12.36548        -0.22693
H         33.04240        14.78027        -0.08339
H         32.99589        16.65826         0.28696
H         30.80009        20.36378         0.34726
H         32.94998        19.11168         0.48290
