         232
 CSIRO Nanostructure Databank - Neutral Graphene Oxide Data Set
C        -11.05787         0.68995         0.19402
C         -9.82780         1.44730        -0.01617
C         -8.65517         0.72959        -0.31540
C         -7.32316         1.34732        -0.43117
C         -6.12425         0.62283         0.12083
C         -5.14320         1.47042         0.92952
C         -3.82213         0.72328         1.12307
C         -2.61271         1.43545         0.60721
C         -1.38870         0.63659         0.33921
C         -0.12399         1.38009         0.15400
C          1.09162         0.60469        -0.02793
C          2.26466         1.23084        -0.43897
C          3.45020         0.39387        -0.78050
C          4.72584         1.17894        -1.02721
C          5.90613         0.29533        -1.02868
C          7.78894         1.46864        -0.98148
C          8.92077         0.65866        -0.48727
C         10.06544         1.41167         0.12309
C         11.04785         0.60774         0.88853
C         -9.96540         2.86539         0.22027
C         -9.07930         3.86201        -0.22624
C         -7.18363         2.81374        -0.51545
C         -6.20338         3.58360         0.02948
C         -4.98140         2.92285         0.48807
C         -3.80500         3.60166         0.58050
C         -2.49608         2.91750         0.89537
C         -1.32712         3.55140         0.15308
C         -0.14752         2.75390        -0.03837
C          1.06610         3.40202        -0.67635
C          2.35113         2.69467        -0.33748
C          3.65089         3.41793        -0.39915
C          4.88698         2.67985        -0.87771
C          6.22218         3.45103        -0.86914
C          7.55092         2.76890        -0.64559
C          8.66991         3.49760        -0.02169
C          9.85313         2.85836         0.31076
C         -8.84326         5.16221         0.22924
C         -7.56928         5.83974         0.04274
C         -6.27303         5.07500        -0.11718
C         -5.00867         5.81198         0.19522
C         -3.74437         5.10882         0.67254
C         -2.52034         5.73328         0.01746
C         -1.32891         4.91298        -0.17358
C         -0.07812         5.56943        -0.52694
C          1.12396         4.89167        -0.53349
C          2.40162         5.58666        -0.52230
C          3.61291         4.90296        -0.48257
C          4.89564         5.53222         0.03016
C          6.16473         4.91584        -0.54838
C          7.41596         5.63701        -0.15490
C          8.56870         4.93363         0.11731
C         -7.53061         7.20573         0.17696
C         -6.31872         8.06841         0.44007
C         -5.00565         7.29096         0.45318
C         -3.71078         7.94048         0.06140
C         -2.54627         7.07632        -0.27667
C         -1.36465         7.77147        -0.83057
C         -0.07172         7.00226        -0.88087
C          1.19739         7.74106        -0.76460
C          2.36746         7.03874        -0.51511
C          3.60275         7.79635        -0.25719
C          4.89202         7.05733        -0.01800
C          6.16771         7.77437        -0.24232
C          7.36494         7.07172        -0.16967
C         -6.21019         9.32317        -0.40544
C         -5.03141         9.93668        -0.67771
C         -3.73196         9.33024        -0.45381
C         -2.54719         9.95954        -0.77468
C         -1.29520         9.25250        -0.79334
C         -0.06073         9.88025        -0.92089
C          1.18577         9.17893        -0.87313
C          2.42858         9.87093        -0.90050
C          3.63849         9.21990        -0.64647
C          4.91020         9.86772        -0.64945
C          6.09888         9.18939        -0.44975
C        -11.11650        -0.66549         0.14552
C         -9.93063        -1.46587        -0.03296
C         -8.64323        -0.78907        -0.45210
C         -7.44624        -1.48195         0.21443
C         -6.24757        -0.80405         0.50319
C         -5.06390        -1.51839         0.90154
C         -3.80711        -0.76925         1.14787
C         -2.52136        -1.50935         0.99979
C         -1.36986        -0.79339         0.71357
C         -0.06193        -1.40647         0.90721
C          1.14050        -0.77293         0.34755
C          2.41521        -1.40178         0.52426
C          3.59301        -0.76385         0.17003
C          4.94622        -1.16349         0.72172
C          6.05100        -0.80054        -0.25542
C          7.35695        -1.45250         0.06982
C          8.67882        -0.74266         0.02496
C          9.91583        -1.52248         0.31830
C         11.04013        -0.75125         0.83003
C         -9.95947        -2.82026         0.15215
C         -8.73680        -3.60233         0.18195
C         -7.51180        -2.87357         0.41732
C         -6.31302        -3.60371         0.81183
C         -5.04302        -2.90096         0.95142
C         -3.80621        -3.72105         1.30325
C         -2.50873        -2.94513         1.14009
C         -1.30845        -3.64854         1.08143
C         -0.04278        -2.91248         1.19944
C          1.26876        -3.57627         0.93130
C          2.47784        -2.71633         1.15837
C          3.68642        -3.18639         1.55938
C          5.00831        -2.62966         1.20464
C          6.16644        -3.58609         0.88283
C          7.29015        -2.98124         0.00108
C          8.62468        -3.64665         0.26776
C          9.84790        -2.88959         0.41859
C         -8.72487        -4.97052        -0.02281
C         -7.48975        -5.70812        -0.15711
C         -6.26344        -5.12786         0.43373
C         -4.95081        -5.69712         0.12884
C         -3.75216        -5.05801         0.54591
C         -2.51656        -5.70442         0.34048
C         -1.26181        -5.06236         0.72392
C         -0.05495        -5.73429         0.57977
C          1.26704        -5.06238         0.74445
C          2.49778        -5.88749         0.86489
C          3.69019        -5.42575         1.35114
C          4.99140        -5.92875         0.93894
C          6.11001        -5.11038         0.78780
C          7.36013        -5.76941         0.35118
C          8.60486        -5.00981         0.34373
C         -7.43308        -6.89596        -0.82866
C         -6.13914        -7.53751        -1.23779
C         -4.90230        -6.92102        -0.59960
C         -3.69713        -7.60060        -0.73169
C         -2.48214        -7.01854        -0.25344
C         -1.26338        -7.70831        -0.43785
C         -0.01101        -7.01351        -0.15577
C          1.28760        -7.73701        -0.39418
C          2.46363        -7.33641         0.46674
C          3.79263        -7.85732        -0.01306
C          4.96830        -7.28556         0.37625
C          6.26998        -8.03995         0.30505
C          7.42246        -7.10757         0.06059
C         -6.10950        -9.04179        -1.01852
C         -4.95167        -9.70207        -1.12899
C         -3.67987        -8.94101        -1.43818
C         -2.42586        -9.72319        -1.20475
C         -1.22882        -9.09147        -0.87249
C          0.00891        -9.81319        -0.91522
C          1.26571        -9.19166        -0.73288
C          2.49005        -9.83297        -0.87418
C          3.74810        -9.00519        -1.00050
C          5.05160        -9.76310        -1.05126
C          6.19914        -9.26587        -0.57002
O         -6.28789         0.74312        -1.33110
O          0.91619         3.15649        -2.11795
H          0.06560         3.55153        -2.40629
O         -2.21750         3.03436         2.31328
H         -2.41918         3.96887         2.56840
O         -6.47379        -4.68368         1.80651
O          4.62349         2.05943        -2.18275
O          6.89682        -3.29932        -1.35956
H          7.62950        -3.06501        -1.96641
O          2.20595        -8.07051         1.72239
H          2.99001        -7.96859         2.30353
O          6.49563        -8.55841         1.66747
H          6.64931        -7.78683         2.25353
O         -3.91899        -4.05466         2.71649
H         -4.81685        -4.44680         2.83976
O          6.17055         4.47776        -1.93226
O          6.95121         0.74364        -1.83872
O         -8.19077         3.43963        -1.24028
O         -5.78947         1.57729         2.22712
H         -5.26396         1.01289         2.84896
O          3.14741        -0.21246        -2.09128
H          3.17795         0.51746        -2.75033
O          0.85880        -6.83708        -1.42003
O         -8.47464        -1.05973        -1.88075
H         -7.66946        -0.56747        -2.16600
O          7.87286        -0.81588         1.28856
O          1.37208        -4.11281        -0.43255
O         -6.05909        -7.30502        -2.67434
H         -5.26190        -7.79564        -3.00620
O          5.14529        -0.33968         1.90252
H          5.99087        -0.63629         2.31213
O         -5.38494         5.55607        -1.19503
O         -0.85394         7.24531        -2.10972
O          4.95902         5.15559         1.43281
H          4.36990         5.77833         1.91939
O         -3.70585        -8.67274        -2.89874
H         -2.87365        -8.20245        -3.12250
O         -3.60542         5.35709         2.11104
H         -4.44779         5.11091         2.54840
O         -6.54018         8.57268         1.79512
H         -5.64317         8.72755         2.17683
O          3.62850        -8.34713        -2.31326
H          4.37083        -7.71255        -2.40228
O         -2.34649         1.01417        -0.75578
O          3.71921        -4.38063         2.27691
O         -4.11248         7.77606         1.49049
O          4.14050         7.59157         1.12664
O          3.08012         3.01549         0.90922
O          0.07328        -1.96143         2.27931
O         10.10805         0.89898        -1.29584
O         -3.76048         0.05048         2.40793
O          6.06583        -2.92988         2.17237
H         11.85851        -1.31638         1.30196
H         11.86758         1.13168         1.40243
H         10.65525         3.44384         0.78531
H          9.47139         5.48094         0.42937
H          8.31471         7.62897        -0.17090
H          7.04596         9.74590        -0.51205
H          4.94135        10.94904        -0.85033
H          2.43047        10.95348        -1.09985
H         -0.02942        10.97990        -0.96674
H         -2.55769        11.01999        -1.07167
H         -5.04028        10.92028        -1.17360
H         -7.15038         9.84272        -0.64483
H         -8.49070         7.73095         0.30378
H         -9.60502         5.67305         0.83757
H        -10.83743         3.17534         0.81688
H        -11.97483         1.26422         0.39105
H        -12.07094        -1.18374         0.32220
H        -10.91581        -3.33114         0.34282
H         -9.66347        -5.48359        -0.28006
H         -8.35404        -7.31231        -1.26504
H         -7.05281        -9.57512        -0.82663
H         -4.90163       -10.79611        -1.02177
H         -2.41127       -10.77804        -1.51791
H         -0.02412       -10.87755        -1.19277
H          2.52630       -10.90593        -1.11754
H          5.06569       -10.69495        -1.63860
H          7.13715        -9.82856        -0.70011
H          8.39848        -7.55136        -0.19093
H          9.54761        -5.57258         0.42544
H         10.74861        -3.45123         0.71255
