         280
 CSIRO Nanostructure Databank - Neutral Graphene Oxide Data Set
C         30.78453        31.67594        -2.16231
C         30.75272        32.89942        -2.01100
C         30.84835        36.20639        -1.97863
C         30.90153        37.43648        -1.94447
C         31.05864        40.86273        -1.87837
C         30.92523        42.05549        -1.51672
C         33.02981        28.78435        -1.29320
C         32.08983        29.38150        -1.81979
C         32.81685        31.48148        -0.86562
C         32.03989        30.84985        -2.09737
C         32.69895        32.99993        -0.64470
C         31.87181        33.84151        -1.65964
C         32.47513        35.95771        -0.17333
C         31.53913        35.21941        -1.13184
C         32.39144        37.51323         0.05412
C         31.82324        38.33810        -1.26400
C         32.44644        40.42558         0.05428
C         31.89786        39.83240        -1.26413
C         32.60094        41.96779         0.20518
C         31.61701        42.84231        -0.57574
C         32.86546        44.77712         0.22988
C         31.96583        44.19240        -0.41863
C         35.54199        27.05833         0.14161
C         35.34714        28.51029         0.02310
C         34.22099        29.26928        -0.58338
C         34.98149        31.45627         0.61644
C         33.89681        30.70405        -0.13850
C         34.93887        32.96687         0.69064
C         33.70683        33.72169         0.20829
C         34.98386        35.94064         0.14980
C         33.67795        35.24257         0.48241
C         35.05596        37.41251         0.59307
C         33.72388        38.20285         0.47557
C         35.00710        40.48108        -0.04875
C         33.75977        39.70837         0.41724
C         35.17096        41.88470         0.58470
C         33.85265        42.60417         0.78857
C         35.22130        44.69728         1.50966
C         33.96356        44.12052         0.95921
C         35.67066        46.07311         1.38048
C         37.72434        26.94852         1.27732
C         36.56307        26.47315         0.50957
C         37.65745        28.47170         1.32417
C         36.35420        29.20770         0.94947
C         37.57496        31.43464         0.82603
C         36.26451        30.70588         0.98156
C         37.55424        32.95672         0.79162
C         36.25557        33.72790         0.72397
C         37.57539        35.91340         0.28016
C         36.26090        35.15914         0.20464
C         37.58869        37.42093         0.19547
C         36.26686        38.14307         0.01850
C         37.63269        40.28719         0.24767
C         36.29105        39.64491        -0.09492
C         37.73857        41.62396         0.92232
C         36.49463        42.49300         0.99070
C         37.89831        44.50613         1.91690
C         36.51104        43.74550         1.88782
C         38.01572        46.02873         1.96962
C         36.73773        46.64470         1.58393
C         40.29285        24.29632         0.55930
C         39.24955        24.92480         0.74977
C         40.38784        26.99813         1.48856
C         39.03381        26.23528         1.35630
C         40.30915        28.52479         1.51837
C         38.95621        29.25019         1.45786
C         40.15567        31.49792         1.09764
C         38.88623        30.69245         0.98095
C         40.11973        32.90241         0.50350
C         38.81591        33.61411         0.29485
C         40.10456        35.86375        -0.14559
C         38.81171        35.10757        -0.03327
C         40.09308        37.37450        -0.39952
C         38.80614        38.14153        -0.36718
C         40.15452        40.41996        -0.42623
C         38.77910        39.68471        -0.56255
C         40.24991        41.77840         0.22695
C         39.08212        42.32960         1.03732
C         40.35439        44.54563         1.04377
C         39.17021        43.73641         1.58623
C         40.33409        46.04198         0.92792
C         39.32648        46.78599         1.84038
C         40.22650        48.80613         0.82451
C         39.24398        48.16793         1.22905
C         42.84243        24.37784        -0.00352
C         41.66673        24.72663         0.78286
C         43.05724        27.06109         0.97066
C         41.70409        26.28399         1.17503
C         42.91662        28.60281         0.92559
C         41.60594        29.28737         1.25825
C         42.55613        31.53618         0.27950
C         41.48345        30.78886         1.09496
C         42.67101        33.00941         0.71579
C         41.36100        33.74435         0.69425
C         42.60867        36.02269         0.48954
C         41.32607        35.24175         0.46200
C         42.65152        37.46643         0.04049
C         41.40845        38.13061        -0.49791
C         42.79007        40.38064        -0.60856
C         41.43943        39.63455        -0.66186
C         42.79453        41.88749        -0.33657
C         41.61947        42.37434         0.50996
C         42.95503        44.63844         0.73852
C         41.67486        43.82212         0.90055
C         42.89744        46.12588         0.53128
C         41.54870        46.80422         0.40622
C         42.82332        48.89878         0.24068
C         41.46408        48.34261         0.21496
C         43.82885        25.07483        -0.25032
C         45.18456        27.31445        -0.52683
C         43.97227        26.53177        -0.19202
C         45.32189        28.73753        -0.00322
C         44.02535        29.38649         0.32410
C         45.16288        31.66244        -0.13743
C         43.90886        30.83023         0.08817
C         45.17311        33.20367        -0.11464
C         43.95264        33.79062         0.58375
C         45.21312        35.96858         0.18517
C         43.92256        35.29323         0.59065
C         45.26712        37.42009        -0.10263
C         43.96062        38.16240        -0.11200
C         45.41569        40.16300        -0.11886
C         44.06855        39.58952        -0.55915
C         45.36425        41.66398        -0.29543
C         44.15014        42.39748         0.19937
C         45.52316        44.61642         0.13632
C         44.24775        43.86259         0.50948
C         45.40341        46.10162        -0.21908
C         44.12295        46.83914        -0.05484
C         43.87147        48.28530         0.01926
C         47.60190        27.43410        -0.95288
C         46.50360        26.86883        -0.96844
C         47.82158        28.89642        -1.00857
C         46.57235        29.52476        -0.36240
C         47.81024        31.80836        -0.32317
C         46.52431        31.02307        -0.36832
C         47.73577        33.06719         0.49706
C         46.42371        33.78281         0.57841
C         47.67096        36.09487         1.00833
C         46.41440        35.29225         0.78533
C         47.73597        37.58763         0.68999
C         46.45640        38.30752         0.23573
C         47.85173        40.16920        -0.64253
C         46.66101        39.50766        -0.67175
C         47.91641        41.67029        -0.45990
C         46.59773        42.39002        -0.68645
C         47.72102        44.58524        -1.42460
C         46.68439        43.87794        -0.48570
C         47.77760        45.98432        -0.83593
C         46.76644        46.59056        -0.46817
C         50.48086        29.18251        -0.94585
C         49.10674        29.67188        -1.04590
C         50.44352        31.81853        -0.07205
C         49.18477        31.25831        -0.80112
C         50.30062        33.00980         0.87635
C         48.99131        33.79356         0.91657
C         50.29767        36.00981         1.11964
C         48.96771        35.29740         1.15326
C         50.33296        37.28702         0.27694
C         49.08525        38.16072         0.30424
C         50.43580        40.20613        -0.44864
C         49.14189        39.37311        -0.64117
C         50.41695        41.59469        -1.04558
C         49.06831        42.28118        -1.25630
C         50.39935        44.23488        -1.70633
C         49.00655        43.76128        -1.59327
C         51.51074        29.66065        -0.45590
C         52.77061        31.67717         0.80177
C         51.80318        31.05729        -0.11969
C         52.72746        32.88794         1.09180
C         51.54472        33.69402         1.45328
C         52.69671        35.90043         0.80963
C         51.56140        35.20201         1.44899
C         52.73813        37.05786         0.38324
C         51.65914        37.89904        -0.16465
C         52.75174        40.14913        -1.03797
C         51.79202        39.41000        -0.14901
C         52.80153        41.34630        -1.35727
C         51.65213        42.15181        -1.87552
C         51.48341        43.64510        -1.72211
O         44.03214        27.23730        -1.43411
O         39.28907        37.57617        -1.60551
O         45.79427        39.37451         1.14795
O         46.39657        28.97308         0.98614
O         42.58631        29.03743         2.32030
O         39.48901        32.91119        -0.79189
O         32.45249        33.21694         0.75784
O         34.58866        32.16056         1.83518
O         46.74898        35.79004         2.09632
O         39.81357        45.22170        -0.15073
O         37.76434        40.38123         1.69233
O         31.20546        35.33155         0.25179
O         48.53882        38.37828         1.61732
O         32.79256        42.14246         1.65532
O         50.93207        36.02224         2.43910
O         46.99185        31.75156        -1.54854
O         41.74400        35.95152         1.66300
O         44.50196        46.31223        -1.34608
O         45.39227        36.44698        -1.18347
O         50.54205        41.39605         0.39457
O         48.31262        29.43203        -2.24090
O         39.69866        26.37970         2.61269
O         43.25271        38.19680         1.16994
O         43.11061        45.58288         1.85666
O         44.38637        31.19078        -1.29207
O         40.04926        41.66084        -1.19819
O         36.22013        38.77832        -1.26987
O         45.69676        41.93500        -1.71358
O         48.85309        34.37271         2.24101
O         42.01058        33.39696         1.93840
O         34.10686        44.45779         2.36770
O         38.26518        30.82850        -0.32558
O         36.99651        33.59126         1.97159
O         35.58391        35.43941        -1.07132
O         46.70185        44.28072         0.90714
O         50.85619        37.15275        -1.08845
O         32.55704        30.79378         0.38516
O         43.56602        40.05098        -1.82112
O         46.84467        32.93161         1.66061
O         33.64521        39.05021         1.68034
O         44.35447        42.84701         1.55664
O         37.96119        45.25511         3.18504
O         37.78262        36.74957         1.46213
O         41.47933        38.74569        -1.81243
O         39.63799        29.03765         2.70649
O         39.49600        35.24481        -1.30796
O         41.86097        42.74335         1.87129
O         35.97230        42.73313        -0.33778
O         37.37075        27.62648         2.48388
O         35.93286        29.90137         2.15169
O         40.92253        31.35841         2.30695
O         32.80869        39.02619        -2.03918
O         41.28151        47.44024        -0.88223
O         50.71301        32.86308         2.27991
O         39.43477        42.60251         2.42905
O         51.46382        32.01146        -1.11960
O         35.46256        29.10026        -1.30821
O         48.78360        42.71841        -2.60272
O         44.20131        34.53823         1.79855
O         41.91394        25.15063         2.09924
O         49.25752        38.82909        -1.97762
H         49.08963        39.53873        -2.63344
O         39.95412        46.86719         3.10269
H         39.27980        46.95617         3.80820
O         35.35650        37.34196         1.99615
H         34.62313        36.87134         2.45576
O         49.33989        31.79917        -2.11757
H         48.72483        31.31945        -2.71806
O         32.66148        34.02082        -2.82494
H         32.76589        33.15174        -3.28201
O         52.14083        39.65882         1.19749
H         52.15967        40.62902         1.35120
O         31.42023        40.12945         0.99805
H         31.83855        39.96878         1.87465
O         45.10576        33.67606        -1.46802
H         45.66114        33.07981        -2.02548
O         31.46483        37.69426         1.10018
H         30.79851        36.96974         1.05444
O         43.86950        26.77644         2.11338
H         43.47432        27.22861         2.89233
O         47.10008        44.67157        -2.68852
H         47.76824        44.84445        -3.38273
O         34.65459        40.78501        -1.41724
H         35.46518        41.04991        -1.90379
O         38.38766        39.91516        -1.92091
H         38.91050        39.30614        -2.49169
O         51.41307        41.81504        -3.21422
H         52.14464        42.14571        -3.77451
O         33.50058        35.36947         1.90410
H         32.74714        34.78838         2.15881
O         48.09869        41.89837         0.95181
H         48.99324        41.59622         1.23663
O         41.93934        31.55946        -1.03313
H         42.65676        31.62621        -1.70907
O         32.78724        31.14263        -3.26247
H         32.40778        30.65928        -4.02668
O         42.63517        42.55465        -1.60533
H         43.09144        42.01835        -2.29395
O         36.27342        43.27001         3.19375
H         36.53839        43.96405         3.83787
