         618
 CSIRO Nanostructure Databank - Neutral Graphene Oxide Data Set
C         22.92399        69.79516         1.28143
C         23.00055        71.11796         1.77780
C         21.85182        71.81081         2.18785
C         23.09744        73.87551         2.49171
C         21.91186        73.17465         2.54959
C         25.33856        65.70937         0.07109
C         25.27219        67.05552         0.37101
C         24.03491        67.73573         0.52989
C         25.43291        69.71379         0.98221
C         24.06659        69.09347         0.87405
C         25.42980        71.16289         1.32988
C         24.28620        71.80617         1.74452
C         25.52013        73.91555         2.13321
C         24.32592        73.23471         2.10134
C         27.75347        61.42830        -0.51260
C         27.76605        62.85331        -0.35717
C         26.57086        63.60947        -0.31345
C         27.80391        65.67443         0.22600
C         26.58309        64.98971        -0.01774
C         27.81469        67.09135         0.79791
C         26.50022        67.88426         0.66077
C         27.79299        69.98232         0.20624
C         26.48799        69.26002        -0.05059
C         27.83891        71.33136         0.53808
C         26.56220        72.06265         0.85452
C         27.97102        74.04775         1.43384
C         26.80950        73.18444         1.86257
C         30.24545        57.07584        -1.33529
C         30.23156        58.47653        -0.71584
C         28.96909        59.26365        -0.76619
C         30.21520        61.40196        -0.66265
C         28.93405        60.64385        -0.58985
C         30.24040        62.80213        -0.14501
C         28.99071        63.56943        -0.17684
C         30.31161        65.64497         0.16391
C         29.02628        64.95835         0.09346
C         30.29108        67.11037         0.32786
C         29.01369        67.84206         0.24167
C         30.23295        70.00393        -0.01903
C         29.02051        69.24559         0.12978
C         30.25913        71.40062         0.13549
C         29.06085        72.06268         0.52772
C         30.26637        74.33893         0.50450
C         29.06501        73.48100         0.85362
C         32.82434        52.71783        -1.00336
C         32.81630        54.15586        -1.33570
C         31.57045        54.95492        -1.22047
C         32.83383        57.07810        -1.32832
C         31.56121        56.30935        -1.23282
C         32.81922        58.53070        -0.98986
C         31.53349        59.20513        -0.60357
C         32.78862        61.45016        -0.60525
C         31.52203        60.69537        -0.74336
C         32.80531        62.81404        -0.48128
C         31.56150        63.52972        -0.09308
C         32.77790        65.70800        -0.25872
C         31.52490        65.00303        -0.05871
C         32.79990        67.12359        -0.29727
C         31.56483        67.85825         0.03051
C         32.73166        70.05174        -0.61328
C         31.45545        69.27928        -0.39502
C         32.69061        71.49420        -0.31852
C         31.51549        72.14281         0.01316
C         32.74212        74.27777         0.21971
C         31.55476        73.57713         0.26002
C         35.34219        48.47370        -0.68408
C         35.28497        49.88585        -0.61864
C         34.06276        50.58877        -0.77290
C         35.26445        52.75804        -0.56238
C         34.00429        52.00687        -0.81924
C         35.33009        54.23269        -0.80429
C         34.12342        54.90819        -1.36566
C         35.33838        57.02710        -1.06066
C         34.14089        56.37897        -1.23160
C         35.43754        58.46174        -0.58632
C         34.08877        59.20275        -0.53662
C         35.28028        61.43106        -1.02214
C         34.06076        60.69431        -0.52902
C         35.29362        62.88763        -0.64943
C         34.04617        63.57225        -0.55616
C         35.21606        65.74407        -0.75089
C         33.98465        64.98327        -0.50617
C         35.24297        67.18089        -0.47481
C         34.00247        67.86799        -0.40302
C         35.19291        70.00584        -0.33392
C         34.00808        69.31790        -0.44451
C         35.24202        71.46376        -0.57887
C         33.95031        72.24101        -0.48321
C         35.23015        74.31589        -0.00552
C         34.00829        73.66356        -0.09052
C         37.97621        44.24778        -1.13577
C         37.90338        45.66728        -1.04851
C         36.66387        46.34441        -0.95962
C         37.78784        48.48393        -0.68031
C         36.58340        47.75783        -0.76327
C         37.76007        49.87731        -0.23263
C         36.51446        50.64083        -0.43894
C         37.76257        52.79259        -0.39949
C         36.54157        52.02597        -0.47414
C         37.81524        54.16595        -0.64647
C         36.63329        54.93227        -0.92107
C         37.85651        57.10540        -1.06944
C         36.62052        56.32376        -1.05875
C         37.86598        58.48532        -1.12880
C         36.55424        59.23088        -1.34263
C         37.78758        61.44801        -0.86275
C         36.58058        60.67824        -0.87809
C         37.76123        62.86597        -0.42981
C         36.52149        63.55363        -0.55747
C         37.76534        65.72580        -0.26678
C         36.55755        65.00871        -0.68023
C         37.71045        67.13794        -0.12812
C         36.46933        67.83121        -0.26189
C         37.69029        70.00300         0.33905
C         36.40703        69.26447         0.06038
C         37.67807        71.50100         0.25683
C         36.57968        72.19282        -0.53822
C         37.71153        74.34627        -0.13868
C         36.50276        73.67076        -0.19021
C         40.46988        40.01752        -1.21131
C         40.42664        41.42877        -1.30771
C         39.24039        42.14087        -1.21500
C         40.43683        44.32000        -1.27848
C         39.20150        43.57646        -1.24315
C         40.38716        45.75535        -1.17478
C         39.13770        46.40245        -1.08255
C         40.36948        48.64647        -0.83600
C         39.06154        47.86180        -1.02518
C         40.34272        49.98908        -0.22175
C         39.02655        50.60916         0.08101
C         40.25140        52.84457         0.37248
C         38.96812        52.10970         0.14348
C         40.35874        54.23036        -0.17034
C         39.12472        54.85775        -0.72524
C         40.36273        57.07065        -0.63282
C         39.14224        56.36005        -0.99149
C         40.42005        58.51282        -0.82078
C         39.14834        59.24336        -1.15205
C         40.29384        61.37508        -0.26565
C         39.16467        60.74086        -0.94419
C         40.12342        62.73531         0.39102
C         38.94025        63.54904        -0.10641
C         40.15801        65.69917         0.29672
C         38.93991        64.97993         0.00707
C         40.14352        67.10020         0.31914
C         38.93288        67.85354         0.16216
C         40.18991        70.00979         0.11636
C         38.95476        69.26590         0.23974
C         40.19495        71.40674         0.00884
C         38.98483        72.22171         0.19242
C         40.19507        74.29878        -0.38706
C         38.98664        73.66097        -0.19108
C         42.89912        35.78048        -0.78654
C         42.88954        37.15281        -1.01621
C         41.69200        37.89663        -1.07594
C         42.94969        40.03468        -1.17321
C         41.67954        39.30036        -1.21099
C         42.94707        41.44653        -1.18791
C         41.70012        42.16439        -1.64329
C         42.90114        44.30840        -1.16072
C         41.68139        43.63135        -1.29409
C         42.92316        45.79931        -1.36897
C         41.61658        46.50182        -1.07931
C         42.83344        48.59226        -0.53411
C         41.62135        47.86890        -0.81187
C         42.76995        49.92518        -0.11607
C         41.52338        50.63001         0.07393
C         42.77426        52.78730         0.40511
C         41.51602        52.03321         0.73158
C         42.86094        54.15834        -0.18434
C         41.54740        54.88322        -0.24558
C         42.64364        57.05615         0.36003
C         41.67362        56.34026        -0.62049
C         42.81827        58.50515        -0.06795
C         41.56721        59.27371        -0.29040
C         42.61823        61.27236         0.78669
C         41.46130        60.62579         0.02825
C         42.57902        62.79188         0.74887
C         41.42008        63.51198         0.52675
C         42.58734        65.69282         0.67259
C         41.39076        64.96232         0.53981
C         42.63861        67.10924         0.53923
C         41.36857        67.88058         0.72567
C         42.65489        69.90162        -0.03026
C         41.42900        69.27209         0.14438
C         42.69807        71.30023        -0.48542
C         41.38751        72.09780        -0.47029
C         42.67544        74.19824        -0.54044
C         41.44796        73.57846        -0.43777
C         45.31489        32.96189        -0.18503
C         44.11591        33.65771        -0.43089
C         45.36948        35.76087        -0.56204
C         44.11763        35.04740        -0.62411
C         45.40297        37.15666        -0.75182
C         44.19240        37.85257        -1.32096
C         45.37412        40.03154        -0.82904
C         44.16266        39.33265        -1.03558
C         45.36578        41.45740        -0.76905
C         44.14299        42.16486        -0.98102
C         45.34533        44.31291        -0.71837
C         44.13757        43.61184        -0.98203
C         45.33904        45.75436        -0.62305
C         44.13335        46.47276        -0.77920
C         45.32240        48.55443        -0.37979
C         44.10953        47.87259        -0.56594
C         45.29263        50.02182        -0.27631
C         44.02755        50.59058         0.26648
C         45.28639        52.84304         0.42127
C         44.02240        52.09501         0.51800
C         45.23492        54.23782         0.64156
C         43.99524        54.95468         0.45548
C         45.13924        57.08180         0.95678
C         43.96723        56.34176         0.56083
C         45.20324        58.48478         0.89304
C         44.08277        59.23144         0.24628
C         45.17415        61.38444         1.05245
C         44.01101        60.76243         0.29158
C         45.12391        62.78897         1.20548
C         43.81239        63.46742         1.17180
C         45.10652        65.65027         0.89154
C         43.81791        65.00355         1.08470
C         45.10254        67.00620         0.32662
C         43.85307        67.78849         0.37020
C         45.13981        69.91330         0.04616
C         43.89976        69.19875         0.14499
C         45.15043        71.35426        -0.14241
C         43.95230        72.05541        -0.36977
C         45.15747        74.16757        -0.50773
C         43.93508        73.47984        -0.49916
C         46.52218        33.63223        -0.09318
C         47.78922        35.75988        -0.15174
C         46.58069        35.04924        -0.26091
C         47.82147        37.16794        -0.27599
C         46.60170        37.87673        -0.57341
C         47.80647        40.02318        -0.40171
C         46.61051        39.31335        -0.63271
C         47.80170        41.45552        -0.35650
C         46.58166        42.17030        -0.53792
C         47.76497        44.29654        -0.14875
C         46.56937        43.60191        -0.47337
C         47.76519        45.73542        -0.07647
C         46.55508        46.44774        -0.32791
C         47.80051        48.57875        -0.15167
C         46.56523        47.87381        -0.28987
C         47.89057        50.08779        -0.35941
C         46.55545        50.80419        -0.20890
C         47.69905        52.84294         0.73471
C         46.51833        52.17651         0.35449
C         47.61471        54.19341         1.15954
C         46.41346        54.90386         1.04098
C         47.60427        57.02181         1.65126
C         46.27727        56.29629         1.59797
C         47.51636        58.48818         1.85125
C         46.34226        59.21665         1.33936
C         47.57997        61.35879         1.65538
C         46.35604        60.64645         1.35964
C         47.55216        62.85993         1.89908
C         46.28567        63.55991         1.44277
C         47.54731        65.75453         1.29654
C         46.28465        64.96761         1.20505
C         47.61442        67.13713         0.80520
C         46.40763        67.78185         0.28589
C         47.61484        69.94599         0.22327
C         46.37166        69.24702         0.21148
C         47.62305        71.36941         0.00750
C         46.39060        72.06280        -0.15611
C         47.63409        74.16608        -0.46478
C         46.39494        73.48274        -0.37624
C         49.02409        37.89669        -0.12004
C         50.23480        40.03176         0.04580
C         49.04065        39.30585        -0.17136
C         50.23710        41.44218         0.10777
C         49.00947        42.16126        -0.08651
C         50.18774        44.26310         0.42127
C         48.99598        43.58072         0.05183
C         50.12385        45.71765         0.81840
C         48.95312        46.44926         0.20456
C         50.28822        48.60874         0.06413
C         48.97792        47.85611         0.07796
C         50.17212        49.91749         0.85593
C         48.97674        50.73825         0.46453
C         50.14964        52.74727         1.22674
C         48.94452        52.08339         0.81820
C         50.11396        54.13382         1.72917
C         48.79389        54.87024         1.74141
C         50.06550        57.03778         2.26369
C         48.78323        56.35590         1.78182
C         50.10381        58.51521         1.92572
C         48.83087        59.24666         1.99736
C         50.08693        61.36458         1.79215
C         48.80411        60.69651         1.75518
C         50.06069        62.84996         1.80490
C         48.80610        63.51063         1.27017
C         50.09930        65.72991         1.12325
C         48.85105        65.01978         1.47652
C         50.06618        67.09896         0.82835
C         48.82968        67.82105         0.70808
C         50.07472        69.94550         0.24267
C         48.83583        69.23803         0.36644
C         50.08799        71.36176         0.01858
C         48.85469        72.06860        -0.09149
C         50.10926        74.14894        -0.54887
C         48.86107        73.48559        -0.35556
C         51.41561        42.16536         0.43315
C         52.62517        44.23747         1.16474
C         51.38695        43.54826         0.62350
C         52.65849        45.73246         0.93529
C         51.44737        46.44105         0.70651
C         52.68779        48.54862         0.72236
C         51.47962        47.82585         0.55471
C         52.68897        49.99431         0.74607
C         51.45081        50.70770         0.78963
C         52.62029        52.85373         1.15875
C         51.40261        52.09759         1.04896
C         52.59781        54.21688         1.46641
C         51.36449        54.93159         1.71073
C         52.57413        57.06632         1.80796
C         51.34367        56.30879         1.88128
C         52.56515        58.48407         1.83621
C         51.30436        59.21172         1.85416
C         52.57332        61.43365         2.16013
C         51.28722        60.67134         1.84333
C         52.59579        62.84804         1.61543
C         51.34943        63.61508         1.65485
C         52.56209        65.64460         0.92026
C         51.31983        64.99684         1.14892
C         52.57805        67.06534         0.63473
C         51.29365        67.73867         0.23669
C         52.51361        69.94564         0.19923
C         51.30703        69.24688         0.31628
C         52.54629        71.33739        -0.10407
C         51.32439        72.04560        -0.18132
C         52.57015        74.10232        -0.79947
C         51.32695        73.45830        -0.50643
C         53.86696        46.41709         0.98696
C         55.11974        48.57375         1.03891
C         53.91222        47.84092         0.91334
C         55.13355        49.98521         0.99613
C         53.90322        50.69295         0.85231
C         55.13175        52.86049         1.25839
C         53.90263        52.19314         0.69889
C         55.09111        54.19872         1.56300
C         53.83769        54.94780         1.56933
C         55.11022        57.06687         1.54530
C         53.81037        56.33210         1.70346
C         55.01889        58.52407         1.84986
C         53.82219        59.21714         1.84811
C         55.01805        61.36871         1.58398
C         53.84406        60.67875         1.84229
C         55.04301        62.77882         1.28298
C         53.77792        63.51014         1.30934
C         55.07698        65.66342         1.10928
C         53.76344        64.93014         1.07141
C         55.02814        67.04910         0.51012
C         53.77071        67.74427         0.49358
C         55.02803        69.88258        -0.18172
C         53.77888        69.21415         0.33792
C         54.94055        71.24242        -0.71624
C         53.78237        71.97262        -0.53883
C         55.02135        74.02224        -1.17481
C         53.77535        73.39494        -0.87531
C         56.35559        50.71647         1.16585
C         57.59492        52.80342         1.57489
C         56.37834        52.10859         1.33567
C         57.62042        54.18352         1.86352
C         56.31987        54.86419         2.05035
C         57.60909        57.05862         2.14872
C         56.31028        56.36453         2.17388
C         57.59121        58.51874         2.26559
C         56.28907        59.25595         2.07026
C         57.56436        61.43378         1.69821
C         56.31930        60.61017         1.40271
C         57.54634        62.78948         1.06825
C         56.20537        63.41531         0.80684
C         57.11004        65.45398        -0.27012
C         56.14102        64.80952         0.47911
C         57.34107        66.85143        -0.30324
C         56.17116        67.63540        -0.03181
C         57.36849        69.56613        -1.23784
C         56.12202        68.98185        -0.62708
C         57.40694        71.05050        -1.36224
C         56.09018        71.78962        -1.53474
C         57.46221        73.89406        -1.53585
C         56.20816        73.28987        -1.37629
C         58.80683        54.93162         1.90073
C         60.06355        57.08668         1.85207
C         58.82361        56.36079         2.00693
C         60.13730        58.48526         1.84232
C         58.90382        59.24917         2.15166
C         60.12906        61.36482         1.40810
C         58.88557        60.72290         1.86797
C         60.09740        62.71110         0.98557
C         58.85795        63.33214         0.63118
C         60.06503        65.34828        -0.14005
C         58.97572        64.43602        -0.20421
C         59.90244        66.76462        -0.45214
C         58.62137        67.43602        -0.61640
C         59.80144        69.58378        -0.94921
C         58.63018        68.82026        -0.98239
C         59.80881        70.82254        -1.84790
C         58.59522        71.68490        -1.56525
C         59.90546        73.73295        -1.89586
C         58.66560        73.13552        -1.68208
C         61.32745        59.21964         1.60521
C         62.56188        61.35212         1.12383
C         61.35097        60.63468         1.41885
C         62.56356        62.71350         0.82529
C         61.31268        63.41603         0.71393
C         62.51124        65.57416         0.37303
C         61.26224        64.79257         0.37105
C         62.43360        66.99520        -0.12389
C         61.06594        67.57584        -0.33863
C         62.43933        69.35569        -2.22986
C         60.94298        68.98221        -0.35375
C         62.33083        70.84945        -2.15085
C         61.13055        71.55137        -1.96462
C         62.33194        73.66170        -2.30066
C         61.12916        72.98596        -2.03968
C         63.78374        63.46474         0.54983
C         65.03645        65.63764         0.26174
C         63.77436        64.80823         0.32294
C         64.90967        66.93345        -0.53097
C         63.65064        67.56311        -0.79255
C         64.84715        69.45097        -1.82073
C         63.63838        68.74814        -1.56492
C         64.81257        70.82954        -2.23568
C         63.56890        71.54411        -2.27594
C         64.78626        73.64287        -2.65930
C         63.56525        72.97003        -2.41530
C         66.08772        67.51930        -0.97475
C         67.30246        69.50015        -1.85370
C         66.10196        68.81826        -1.55733
C         67.28472        70.84536        -2.28349
C         66.02763        71.53148        -2.41114
C         67.24468        73.61173        -2.91950
C         66.01092        72.94362        -2.68427
C         68.48683        71.56171        -2.53330
C         68.45223        72.91777        -2.85937
O         48.17689        65.56246         2.64483
O         56.34087        68.94540        -2.08526
O         39.27446        52.71022         1.46218
O         50.60831        63.47162         2.98850
O         59.07403        60.20517         3.23809
O         36.83515        69.54525         1.45538
O         49.30492        54.25624         2.96730
O         43.83043        58.71594        -1.11802
O         57.93277        64.68429        -1.09533
O         54.75969        69.82712         1.25865
O         35.09722        53.72011         0.55481
O         44.09709        51.07233         1.61765
O         34.02325        59.93662         0.73314
O         62.63510        66.71780         1.31795
O         31.15809        67.63770         1.41894
O         61.70117        68.66931        -2.93972
O         31.91925        69.57302        -1.74999
O         38.61912        61.39187        -2.13644
O         56.09176        55.53679         3.34568
O         30.92212        58.63414         0.59110
O         30.83960        61.18486        -1.97553
O         34.54123        71.89045        -1.80147
O         40.04471        58.87572        -2.25624
O         30.96814        62.92706         1.12318
O         26.17000        68.69052         1.91632
O         43.64495        64.30959         2.36092
O         38.30692        49.96551         1.18601
O         45.86224        67.11526        -0.93285
O         26.24814        69.39283        -1.47690
O         57.50183        62.57201         2.56782
O         45.78264        50.73275        -1.47885
O         47.99623        58.88970         3.17848
O         38.20378        72.08951         1.46565
O         39.71357        48.59114        -2.15263
O         56.80323        59.05852         3.40758
O         32.83145        58.12341        -2.39058
O         35.96466        65.41788        -1.96829
O         39.36024        55.36969        -2.09560
O         41.94314        71.54120        -1.71477
O         33.57847        54.39999        -2.61527
O         39.76873        62.39144         1.79560
H         39.72493        63.23339         2.29960
O         44.16124        61.25700        -1.06029
H         44.00236        60.48804        -1.66230
O         42.47748        60.87645         2.17169
H         41.63218        61.26070         2.49840
O         26.09606        72.68064        -0.37717
H         25.95488        71.96809        -1.03645
O         49.98487        49.52354         2.25738
H         49.93487        50.34133         2.79700
O         52.55508        61.57943         3.61864
H         51.81841        62.20251         3.83430
O         36.26029        59.16431        -2.75356
H         36.96000        59.65792        -3.23216
O         51.17861        67.45481        -1.21645
H         50.33956        67.85819        -1.52784
O         66.13872        64.86648        -0.21723
H         65.94765        64.58916        -1.13630
O         42.24625        56.44326        -1.95996
H         41.50268        56.36858        -2.59917
O         41.95857        57.05703         1.63703
H         42.54455        57.46137         2.31120
O         47.63378        63.00295         3.33424
H         47.70099        63.96809         3.53461
O         53.94695        52.42948        -0.76240
H         54.01204        53.39864        -0.89910
O         41.76580        42.14534        -3.11760
H         42.47530        42.76726        -3.38817
O         49.99528        56.98882         3.71924
H         49.19828        57.50955         3.98259
O         48.30051        50.28988        -1.75713
H         47.46405        50.32446        -2.28293
O         28.06581        66.92020         2.21512
H         27.66318        67.68900         2.67997
O         43.26200        53.96906        -1.59046
H         43.15499        54.85457        -2.02723
O         55.72008        71.55822        -2.93586
H         55.82497        70.58964        -3.09630
O         53.81148        43.61704         0.65737
H         53.85573        43.78251        -0.30647
O         24.94982        68.79614        -1.78624
H         25.05053        68.59867        -2.74911
O         49.84569        45.69885         2.26984
H         48.95083        45.31683         2.39389
O         29.96705        57.23803        -2.73653
H         30.76695        57.62872        -3.15473
O         43.09774        45.94307        -2.83943
H         43.01235        46.89768        -3.05209
O         61.89963        69.76800         0.21094
H         62.54361        69.20818         0.69385
O         29.96199        75.10467        -0.68051
H         29.75951        74.47694        -1.40450
O         35.92562        58.32769         0.77208
H         35.39549        58.93586         1.34160
O         50.60522        48.91433        -1.31524
H         49.84540        49.41439        -1.70845
O         55.43298        57.01486         0.08970
H         54.62316        57.27222        -0.40114
O         59.55250        70.29976        -3.18709
H         60.24931        69.61769        -3.37839
O         27.19572        72.54103         3.11598
H         27.31966        73.23969         3.79139
O         44.34333        37.74675        -2.78565
H         45.17693        38.20350        -3.02759
O         41.24622        68.07598         2.19025
H         40.41096        68.56713         2.34916
O         55.44586        65.82819         2.52360
H         54.74074        66.35350         2.95755
O         48.79189        63.26679        -0.15563
H         47.91121        63.51390        -0.51048
O         35.04253        61.47135        -2.47684
H         35.75571        62.00860        -2.88458
O         37.09729        72.10782        -1.90111
H         36.33826        72.28887        -2.50322
O         41.51040        51.79349         2.15741
H         40.56610        51.83054         2.44724
O         45.88781        56.12879         3.00421
H         45.17770        55.45373         3.04396
O         56.45759        60.31290        -0.02847
H         55.75909        59.66707        -0.27175
H         23.12323        74.94252         2.75662
H         25.55128        74.95440         2.49940
H         27.97400        75.11846         1.69266
H         30.43316        75.08892         1.32090
H         32.72970        75.35808         0.43101
H         35.23821        75.37968         0.28020
H         37.71534        75.44495        -0.05801
H         40.21690        75.38711        -0.55192
H         42.71968        75.29776        -0.57374
H         45.16261        75.26144        -0.62617
H         47.63407        75.24942        -0.65769
H         50.10623        75.22408        -0.78394
H         52.56201        75.17913        -1.02802
H         55.05943        75.12231        -1.21676
H         57.53309        74.99330        -1.52924
H         59.96368        74.82873        -1.98291
H         62.32260        74.75735        -2.40192
H         64.78138        74.73232        -2.81166
H         67.23704        74.68816        -3.14241
H         21.94532        69.29279         1.24295
H         20.88356        71.28978         2.19417
H         20.98952        73.68610         2.85936
H         24.40367        65.15509        -0.10300
H         23.08285        67.19027         0.45551
H         26.77699        60.92248        -0.55414
H         25.60414        63.10407        -0.45525
H         29.41709        56.45874        -0.90294
H         28.02594        58.70546        -0.86916
H         31.86485        52.17854        -1.03011
H         30.61862        54.40573        -1.14040
H         34.40321        47.91082        -0.78990
H         33.13686        50.01527        -0.92984
H         37.04489        43.66299        -1.10207
H         35.73473        45.75726        -0.99683
H         39.52356        39.46390        -1.10675
H         38.29492        41.59802        -1.06000
H         41.94381        35.24455        -0.67274
H         40.73201        37.36585        -0.97680
H         45.28449        31.87163        -0.04883
H         43.16502        33.10716        -0.47065
H         47.44945        33.08021         0.11725
H         48.72232        35.21631         0.05860
H         49.95972        37.35417         0.08171
H         51.17267        39.48335         0.21933
H         52.35693        41.62071         0.59773
H         52.63473        44.06639         2.27770
H         54.80002        45.85261         1.13245
H         56.06613        48.03162         1.18636
H         57.29792        50.15401         1.24722
H         58.54393        52.25006         1.50897
H         59.76463        54.40940         1.75686
H         60.98041        56.50291         1.67942
H         62.26988        58.66301         1.48722
H         63.51597        60.80397         1.14351
H         64.74662        62.93124         0.57207
H         65.28900        65.92448         1.32146
H         67.04010        66.99957        -0.79279
H         68.26595        68.99378        -1.69525
H         69.44984        71.03770        -2.45318
H         69.39382        73.45280        -3.04756
