         314
 CSIRO Nanostructure Databank - Neutral Graphene Oxide Data Set
C         30.36164        57.01810         0.87086
C         30.36458        58.41504         1.15768
C         29.16908        59.09812         1.45600
C         30.35777        61.19708         1.77761
C         29.17665        60.47008         1.75697
C         32.79034        52.82383        -0.15689
C         32.80556        54.18270         0.16872
C         31.58982        54.93407         0.30816
C         32.78772        57.10546         0.44571
C         31.53898        56.31826         0.55346
C         32.81885        58.52098         0.89040
C         31.60347        59.16172         1.17929
C         32.81827        61.28550         1.49973
C         31.60516        60.56542         1.49420
C         35.33543        48.59079        -1.05787
C         35.30429        49.97910        -0.79299
C         34.07688        50.67313        -0.72482
C         35.36519        52.71561         0.16210
C         33.97886        51.98138        -0.10389
C         35.28292        54.17981         0.29195
C         34.08588        54.85883         0.35112
C         35.30774        57.09063         0.75288
C         34.07471        56.34590         0.37189
C         35.29096        58.57833         0.75400
C         34.04079        59.24036         0.94844
C         35.29744        61.35134         1.26784
C         34.05375        60.64953         1.23971
C         37.77300        44.32797        -0.98093
C         37.77554        45.73698        -1.14832
C         36.56430        46.46040        -1.14817
C         37.80377        48.58388        -1.07608
C         36.55512        47.87359        -1.11258
C         37.79680        50.00672        -0.91984
C         36.56740        50.68515        -0.67878
C         37.78306        52.80239        -0.53583
C         36.59261        52.07591        -0.37433
C         37.83394        54.19276        -0.03453
C         36.57956        54.87310         0.41517
C         37.79931        57.13181         0.25913
C         36.58752        56.35346         0.61975
C         37.75875        58.60570         0.46473
C         36.48785        59.27798         0.82956
C         37.79367        61.38742         1.02985
C         36.52246        60.69832         1.04976
C         40.22383        40.10244        -0.31384
C         40.12995        41.53542         0.12865
C         38.91815        42.27958        -0.34395
C         40.28415        44.15609        -1.27038
C         38.96303        43.57238        -0.81339
C         40.27046        45.68629        -1.39976
C         39.01888        46.45463        -1.23951
C         40.29100        48.59566        -1.06722
C         39.03441        47.86352        -1.17019
C         40.28307        50.05446        -1.02929
C         39.02746        50.73915        -0.97305
C         40.23724        52.90341        -1.03155
C         39.01883        52.16470        -0.89090
C         40.19329        54.37759        -1.04130
C         38.97464        55.04930        -0.46718
C         40.27573        57.11506         0.02458
C         39.07846        56.41587         0.06445
C         40.24157        58.60108         0.20598
C         39.05811        59.23437         0.91046
C         40.27318        61.43586         0.87621
C         39.03207        60.74950         0.87818
C         42.63871        35.87140        -0.30456
C         42.64363        37.26281         0.09108
C         41.51626        38.00551        -0.28646
C         42.60494        40.11896         0.33815
C         41.41093        39.41217        -0.08487
C         42.62970        41.55442         0.22938
C         41.43702        42.26291        -0.09738
C         42.69488        44.33487        -0.37122
C         41.47422        43.60458        -0.48952
C         42.77607        45.74491        -0.72462
C         41.56272        46.44894        -1.22700
C         42.74781        48.60469        -0.75073
C         41.48342        47.90008        -0.97774
C         42.75901        50.09947        -0.86998
C         41.47950        50.79661        -1.05503
C         42.73333        52.94992        -1.15172
C         41.49470        52.23578        -1.12497
C         42.80077        54.41131        -1.14688
C         41.46371        55.18099        -1.04440
C         42.76384        57.12333        -0.09728
C         41.47690        56.49271        -0.41441
C         42.77834        58.58504         0.28936
C         41.51033        59.36942         0.21267
C         42.76310        61.41230         0.74753
C         41.52021        60.78342         0.67592
C         45.09729        33.05181         0.18797
C         43.88769        33.64134        -0.23895
C         45.10115        35.87290         1.14465
C         43.45006        34.88926         0.25841
C         45.03821        37.27923         0.96372
C         43.78496        37.96413         0.66968
C         44.98442        40.15342         1.02818
C         43.76013        39.38622         0.69115
C         45.07401        41.59001         0.67907
C         43.86000        42.26922         0.31377
C         45.08476        44.41682         0.37095
C         43.85387        43.66673         0.08285
C         45.11566        45.89804         0.08159
C         43.93156        46.46942        -0.56622
C         45.26681        48.64971        -0.74856
C         44.01706        47.86980        -1.12160
C         45.29300        50.00437        -0.97962
C         44.04198        50.73958        -1.29021
C         45.28939        52.98833        -1.12026
C         44.02801        52.26409        -1.34119
C         45.29653        54.36497        -0.81242
C         44.05929        55.09426        -0.75073
C         45.26923        57.16992        -0.19336
C         44.05047        56.45500        -0.40864
C         45.25503        58.61069         0.08896
C         44.04198        59.32473         0.24362
C         45.23514        61.42752         0.56448
C         44.00775        60.72723         0.49441
C         46.18777        33.68555         0.78453
C         47.51361        35.80236         1.08084
C         46.29469        35.10257         1.01280
C         47.52462        37.22934         1.20533
C         46.27306        37.94412         1.06199
C         47.59500        40.06448         0.85737
C         46.27812        39.40396         1.17031
C         47.55985        41.56646         0.95878
C         46.30641        42.25725         0.73852
C         47.55975        44.35148         0.41743
C         46.36094        43.68278         0.49246
C         47.62799        45.75625        -0.04384
C         46.41558        46.57662        -0.10478
C         47.74980        48.63569        -0.32075
C         46.48802        47.91985        -0.44656
C         47.80599        50.06759        -0.56599
C         46.58036        50.72398        -1.09199
C         47.80772        52.98657        -0.89426
C         46.56111        52.26192        -1.20086
C         47.79876        54.35220        -0.72540
C         46.53683        55.08018        -0.63327
C         47.76324        57.19053        -0.11989
C         46.49545        56.46313        -0.33952
C         47.74971        58.66426         0.11582
C         46.45533        59.35581         0.17326
C         47.72696        61.46552         0.50133
C         46.45432        60.75497         0.40475
C         48.70735        37.93721         1.46068
C         50.00188        40.14079         1.49383
C         48.69191        39.42662         1.72605
C         50.02532        41.50554         1.25042
C         48.75938        42.23271         1.07279
C         50.09972        44.40543         0.88652
C         48.78437        43.69957         0.92439
C         50.27862        45.70499         0.10043
C         48.97254        46.47326        -0.13250
C         50.05145        48.66523         0.56494
C         48.91292        47.93558         0.00874
C         50.13022        50.17202         0.24232
C         48.99258        50.77605        -0.48424
C         50.40949        52.90983        -0.88365
C         49.07667        52.19995        -0.94745
C         50.40193        54.40893        -0.68782
C         49.08825        55.09860        -0.79099
C         50.27057        57.32189        -0.16281
C         49.04958        56.59414        -0.59590
C         50.24278        58.71012         0.06185
C         48.97925        59.46372        -0.31899
C         50.20455        61.64828         0.13167
C         48.91680        60.87482         0.22960
C         51.26890        42.22339         1.20221
C         52.55970        44.33675         1.06339
C         51.35633        43.61336         1.03750
C         52.57790        45.77591         1.03671
C         51.38328        46.48158         0.76217
C         52.63378        48.68256         1.01574
C         51.29340        47.91500         0.95505
C         52.65726        50.06646         0.49543
C         51.47763        50.78507         0.15559
C         52.86756        52.55220        -0.65603
C         51.58141        52.07170        -0.44053
C         52.86695        54.69800        -0.51484
C         51.50989        55.19803        -0.40966
C         52.61829        57.23598         0.53522
C         51.46099        56.59626         0.00779
C         52.59038        58.62705         0.75446
C         51.42128        59.37949         0.44298
C         52.56484        61.51690         0.83096
C         51.43671        60.84361         0.52075
C         53.80247        46.49575         1.18150
C         55.11703        48.56445         0.91443
C         53.88352        47.88694         1.00797
C         55.17318        49.96032         0.66781
C         53.94315        50.65592         0.36820
C         55.20415        52.77927         0.14287
C         54.03159        51.99794        -0.07963
C         55.11029        54.22427         0.46355
C         53.90906        55.08113         0.26815
C         55.12930        57.15666         0.81672
C         53.81867        56.40981         1.00018
C         55.13950        58.59820         1.10750
C         53.82553        59.33662         1.21113
C         54.96540        61.38302         0.23867
C         53.88254        60.87771         1.16802
C         56.38638        50.68119         0.60240
C         57.65242        52.82982         0.48322
C         56.41869        52.09270         0.44510
C         57.68185        54.22581         0.51885
C         56.41023        54.92625         0.81453
C         57.69693        57.14992         0.71173
C         56.38926        56.41985         0.92327
C         57.63177        58.63177         0.45517
C         56.37159        59.39001         0.74030
C         57.26278        61.34086        -0.57730
C         56.17954        60.72852         0.08681
C         58.85332        54.98333         0.24270
C         59.97294        57.10233        -0.31680
C         58.87213        56.38983         0.20207
C         59.90898        58.47621        -0.66794
C         58.59278        59.15152        -0.56562
C         59.66761        61.24864        -1.48329
C         58.44379        60.59612        -1.01458
C         60.96188        59.17100        -1.26291
C         60.83201        60.53926        -1.63443
O         48.34950        45.94248        -1.34955
O         58.00017        59.41980        -1.85773
O         45.58358        39.88267         2.37063
O         54.46304        58.84957         2.43881
O         37.65171        58.06904        -0.89345
O         42.74852        57.56414         1.34050
O         33.48359        56.90716        -0.84837
O         49.86795        52.43836        -2.16715
O         55.61395        54.33204         1.86463
O         51.84499        48.42662         2.20792
O         34.69268        51.99829         1.19564
O         40.71434        59.24237        -1.01920
O         47.94282        57.74112         1.24021
O         42.18180        55.07835        -2.31033
O         43.95980        35.22390         1.55323
O         44.89963        45.41234         1.45303
O         37.51227        54.25335         1.39084
O         57.27879        56.82890         2.05869
O         53.05615        53.67190        -1.45810
O         46.73608        51.38206        -2.38107
O         49.70839        49.67778         1.55287
O         49.32109        44.48055         2.10632
O         36.01811        56.62889         1.95423
O         41.07249        46.09249        -2.56916
O         49.04882        56.05815        -1.93555
O         57.49635        59.41328         1.68019
O         42.85662        49.42772         0.44436
O         44.00219        51.40269        -2.56867
O         39.17228        54.96000        -1.92440
O         48.95528        59.60499        -1.71829
O         50.79645        45.32487        -1.20474
H         50.02089        45.25642        -1.81094
O         40.46480        43.61646        -2.61088
H         40.95292        44.30255        -3.12622
O         48.36725        39.59496         3.13619
H         47.38934        39.64196         3.23750
O         39.22076        58.85508         2.30933
H         38.48866        59.25185         2.82684
O         53.64524        56.17403         2.42117
H         53.88718        57.01224         2.88284
O         50.14654        62.86874         0.86904
H         50.11882        62.65347         1.82362
O         47.87800        39.74148        -0.53110
H         48.76750        40.09540        -0.74504
O         54.26764        61.37074         2.47852
H         54.72142        60.62455         2.94100
O         39.96373        41.47948         1.60241
H         40.72915        40.98251         1.96416
O         44.00854        47.78692        -2.57356
H         44.86162        47.40997        -2.87390
H         29.40610        56.47360         0.91644
H         28.21751        58.54736         1.44898
H         30.34238        62.27061         2.01433
H         28.22577        60.97405         1.98044
H         31.85232        52.36760        -0.50710
H         30.64204        54.37431         0.28867
H         32.80091        62.36329         1.72076
H         34.38765        48.03739        -1.13092
H         33.16085        50.18298        -1.08698
H         35.28805        62.43407         1.46442
H         36.80688        43.82613        -0.81654
H         35.61036        45.91382        -1.12063
H         37.77635        62.48540         1.11588
H         39.32426        39.56258        -0.64395
H         37.94105        41.84280        -0.08169
H         40.27175        62.52676         1.02871
H         41.96892        35.59312        -1.13269
H         40.65519        37.47550        -0.72113
H         42.81276        62.47689         1.02280
H         45.26445        32.00930        -0.12754
H         43.32064        33.15571        -1.04565
H         45.23033        62.50728         0.77407
H         47.11344        33.09863         0.88331
H         48.46553        35.25259         1.07967
H         47.70129        62.53143         0.77788
H         49.63949        37.37396         1.62476
H         50.94500        39.60756         1.68943
H         50.32362        61.93006        -0.95131
H         52.19710        41.64824         1.34112
H         53.51051        43.80164         1.20377
H         52.53727        62.61721         0.86190
H         54.73504        45.92148         1.28554
H         56.05232        47.99558         1.02192
H         54.85254        62.39399        -0.18167
H         57.33035        50.14828         0.78976
H         58.59774        52.27063         0.42128
H         57.17192        62.39740        -0.87171
H         59.76296        54.44060        -0.05595
H         60.88037        56.53914        -0.58446
H         59.64923        62.33272        -1.66530
H         61.93211        58.67180        -1.39419
H         61.72454        61.05678        -2.01442
