         210
 CSIRO Nanostructure Databank - Neutral Graphene Oxide Data Set
C         30.36716        31.81477         0.40601
C         30.45409        32.95454         0.91957
C         30.75538        35.97081         2.17158
C         30.74854        37.20996         2.19084
C         30.46427        40.23035         0.94505
C         30.30727        41.35543         0.44205
C         32.70177        29.20127        -0.81001
C         31.59665        29.73589        -0.54342
C         32.76418        31.68176         0.25319
C         31.47621        31.02400         0.02024
C         32.81368        33.01692         0.79740
C         31.61117        33.71152         1.22467
C         33.03005        35.47573         2.07956
C         31.72398        34.94356         1.89536
C         33.04054        37.71096         2.16470
C         31.72521        38.24336         1.94954
C         32.82592        40.19674         0.91986
C         31.62032        39.46199         1.28280
C         32.78378        41.55252         0.46025
C         31.42117        42.37280         0.59305
C         32.62305        44.02772        -0.59419
C         31.51340        43.50642        -0.40217
C         35.44524        27.82088        -1.67236
C         35.21541        28.99157        -0.93987
C         34.01968        29.65906        -0.60072
C         35.24669        31.68864         0.14496
C         34.00066        30.99785        -0.03346
C         35.26140        33.04729         0.46552
C         34.06419        33.72170         0.82941
C         35.38407        35.87292         1.28868
C         34.15128        35.05394         1.36370
C         35.40772        37.36346         1.40729
C         34.18711        38.18503         1.54508
C         35.27639        40.22137         0.70282
C         34.08865        39.52845         1.01808
C         35.24416        41.53154         0.20124
C         33.97412        42.18420         0.04012
C         35.12066        44.24555        -0.79504
C         33.97405        43.56482        -0.50436
C         35.34044        45.57550        -1.25616
C         37.83255        27.66936        -1.58316
C         36.53014        27.24015        -1.94517
C         37.81577        28.92993        -0.89799
C         36.52558        29.50576        -0.45049
C         37.81933        31.62721         0.10609
C         36.52676        30.93441         0.09173
C         37.79010        33.04119         0.51882
C         36.52641        33.85222         0.27248
C         37.89089        35.89851         1.15420
C         36.54812        35.21980         0.93499
C         37.84620        37.39056         0.92552
C         36.58144        38.05782         1.10321
C         37.74914        40.22570         0.49387
C         36.56392        39.57652         1.15797
C         37.69774        41.70152         0.32457
C         36.49803        42.26433        -0.01588
C         37.70093        44.43346        -0.69356
C         36.48148        43.53143        -0.84067
C         37.70730        45.75160        -1.12637
C         36.37625        46.23263        -1.47297
C         40.27531        24.93140        -2.15908
C         39.24834        25.65653        -2.19759
C         40.29569        27.55768        -1.29598
C         39.05667        26.97624        -1.74611
C         40.28406        28.91270        -0.82104
C         39.03215        29.58828        -0.60236
C         40.29746        31.67800        -0.03922
C         39.02571        30.96315        -0.12269
C         40.32637        33.06559         0.19911
C         39.08866        33.78225         0.55081
C         40.34046        35.97266         0.49890
C         39.01235        35.27623         0.31890
C         40.32788        37.37095         0.57006
C         39.05072        38.05121         0.72652
C         40.31526        40.26014         0.58201
C         39.03888        39.50369         0.45196
C         40.28592        41.76001         0.47131
C         38.96722        42.47244         0.34051
C         40.25519        44.52416        -0.51806
C         38.96828        43.87436        -0.18181
C         40.21882        45.87763        -0.95288
C         38.92829        46.49772        -1.19525
C         40.13296        48.54135        -1.69147
C         39.09494        47.83789        -1.56310
C         42.76226        24.73762        -1.44238
C         41.51545        25.38025        -1.66027
C         42.72304        27.43936        -0.85141
C         41.51430        26.79193        -1.28066
C         42.74790        28.84476        -0.58389
C         41.51952        29.57291        -0.54111
C         42.77277        31.67017        -0.11599
C         41.53627        30.97793        -0.23370
C         42.76909        33.09558         0.04924
C         41.54208        33.80520         0.16809
C         42.77892        35.95935         0.27341
C         41.54788        35.24394         0.32389
C         42.79265        37.40036         0.29554
C         41.56329        38.10850         0.41113
C         42.76851        40.27665         0.24407
C         41.57810        39.53547         0.36767
C         42.74550        41.72612         0.09010
C         41.52791        42.44787         0.06116
C         42.72264        44.53012        -0.52074
C         41.48653        43.82963        -0.32439
C         42.69198        45.92669        -0.85886
C         41.45039        46.61332        -1.10548
C         42.71660        48.61777        -1.53778
C         41.42952        48.02564        -1.47542
C         43.76040        25.32709        -0.97005
C         45.13306        27.34807        -0.31029
C         43.95176        26.70146        -0.67954
C         45.22358        28.79221        -0.27249
C         43.99520        29.52176        -0.35102
C         45.27175        31.58969         0.02522
C         44.02408        30.93833        -0.17560
C         45.24730        33.04835         0.30040
C         43.99489        33.82391         0.11422
C         45.25145        35.98919        -0.00815
C         43.99548        35.22368         0.17317
C         45.27718        37.45790         0.17560
C         44.02526        38.14371         0.22995
C         45.24875        40.29550         0.14525
C         44.01492        39.57088         0.20484
C         45.23340        41.72091         0.01933
C         43.98330        42.42648        -0.08462
C         45.20575        44.54861        -0.40540
C         43.96247        43.83695        -0.33515
C         45.16721        45.95852        -0.67467
C         43.94937        46.62178        -0.93567
C         43.76363        47.97672        -1.28223
C         47.52484        27.26073         0.10726
C         46.40154        26.76018        -0.05397
C         47.76793        28.67415        -0.21985
C         46.48249        29.47383        -0.16018
C         47.81794        31.56949         0.40527
C         46.50538        30.87992         0.00021
C         47.81293        33.08105         0.30258
C         46.53594        33.79818         0.37399
C         47.80649        35.99509         0.21572
C         46.54597        35.25065         0.02809
C         47.77372        37.44024         0.25902
C         46.50225        38.14757         0.24012
C         47.70986        40.32436         0.28112
C         46.49558        39.59624         0.23684
C         47.71691        41.73288         0.13740
C         46.47156        42.43330        -0.01755
C         47.69768        44.55953        -0.19428
C         46.44844        43.85769        -0.19664
C         47.53064        45.94383        -0.43115
C         46.45772        46.54546        -0.65689
C         50.39189        28.96877         0.25611
C         49.12392        29.27064        -0.29005
C         50.33334        31.74744         0.47399
C         49.14029        31.20150        -0.36580
C         50.25526        33.14065         0.64911
C         48.98124        33.81279         0.35111
C         50.31308        35.92865         0.27197
C         48.97084        35.26333         0.30348
C         50.23757        37.43470         0.30207
C         48.99330        38.13100         0.35379
C         50.25184        40.33852         0.22893
C         48.98953        39.61329         0.66411
C         50.24803        41.76254         0.12302
C         48.97603        42.45812         0.11163
C         50.21856        44.44722        -0.10181
C         48.92507        43.87331        -0.03501
C         51.39593        29.55969         0.74398
C         52.37831        31.81515         1.60433
C         51.44918        30.98607         0.95091
C         52.29960        33.06066         1.82314
C         51.27896        33.90693         1.32413
C         51.86590        36.15877         2.24223
C         51.19581        35.33267         1.37279
C         52.30931        37.05826         3.00314
C         51.43828        38.14000         0.13738
C         52.56657        40.40682        -0.08070
C         51.44173        39.58147         0.12017
C         52.64209        41.66114        -0.13520
C         51.50581        42.49052        -0.04568
C         51.34257        43.89874        -0.11564
O         45.92617        35.55261        -1.26878
O         38.24433        39.70649        -0.79281
O         38.87981        43.59221         1.29245
O         33.15986        36.56248         2.95625
O         48.57466        28.79742        -1.46995
O         36.50243        29.76885         0.98960
O         38.46318        33.29564         1.78429
O         49.19101        31.43174        -1.60906
O         40.37457        41.09986         1.78647
O         45.83871        33.42543         1.62924
O         38.24412        35.72423         2.55146
H         37.50016        36.04291         3.10313
O         36.53029        34.10397        -1.17715
H         35.96943        34.88696        -1.36004
O         49.01364        39.67704         2.13460
H         49.77754        39.14791         2.45367
O         38.67153        35.50724        -1.07391
H         39.40721        35.18573        -1.63525
O         36.57262        43.03491        -2.22178
H         36.42607        43.79808        -2.82226
O         52.60042        37.55420        -0.12644
H         52.48743        36.58106        -0.22068
O         36.70925        39.93320         2.56886
H         35.91859        39.60892         3.04971
O         50.99494        35.56219        -0.97827
H         50.76105        34.63481        -1.20446
O         48.03614        31.20168         1.78902
H         47.37603        31.68610         2.33265
O         31.38661        42.89759         1.88969
H         30.57742        43.43651         2.00352
