         630
 CSIRO Nanostructure Databank - Neutral Graphene Oxide Data Set
C         23.11292        27.64145         0.48278
C         23.11231        28.97698         0.74868
C         23.09028        31.90259         0.99774
C         23.09068        33.27428         1.02116
C         23.10937        36.17769         0.94571
C         23.12382        37.53075         0.67963
C         23.14437        40.34304        -0.05699
C         23.15064        41.62406        -0.57390
C         23.07179        44.38004        -1.65279
C         23.09334        45.71654        -1.71698
C         25.42883        24.65772         0.86753
C         24.34316        25.37583         0.52663
C         25.58688        27.57505         0.95761
C         24.35998        26.86062         0.48213
C         25.53281        29.02532         1.26490
C         24.29890        29.73050         1.08780
C         25.45943        31.87763         1.61629
C         24.27655        31.15165         1.24795
C         25.46998        33.28520         1.58010
C         24.28605        34.01321         1.25690
C         25.55972        36.16252         1.11627
C         24.30662        35.44365         1.12342
C         25.57080        37.57940         0.78959
C         24.34251        38.24858         0.54295
C         25.58988        40.28706        -0.13809
C         24.35175        39.62974         0.12863
C         25.59165        41.61239        -0.67525
C         24.35743        42.25252        -0.93996
C         25.62523        44.27908        -1.81577
C         24.32001        43.56715        -1.62102
C         25.61181        45.75533        -1.94610
C         24.36069        46.52002        -1.58593
C         25.45475        48.46899        -2.67121
C         24.31055        47.84157        -2.29532
C         27.98693        23.18309         1.48854
C         27.95331        24.58106         1.45519
C         26.64000        25.28604         1.46801
C         27.98604        27.46149         1.81354
C         26.67127        26.76838         1.60066
C         27.98095        28.96311         1.86592
C         26.69222        29.67510         1.65318
C         28.04992        31.82873         1.97646
C         26.67682        31.10802         1.94133
C         28.05062        33.31904         1.90209
C         26.71123        34.06088         1.79661
C         28.03180        36.17631         1.48597
C         26.74236        35.47199         1.38348
C         28.05034        37.65946         1.09600
C         26.79350        38.29500         0.66165
C         28.08305        40.29026        -0.07847
C         26.82400        39.61319         0.14491
C         28.09245        41.62144        -0.60938
C         26.85836        42.28537        -0.91574
C         28.10717        44.27158        -1.68828
C         26.88260        43.60158        -1.42216
C         28.03613        45.62948        -2.32638
C         26.77140        46.42173        -2.27395
C         27.94799        48.61621        -2.74267
C         26.75167        47.84446        -2.56296
C         27.98473        50.01916        -2.76703
C         30.40504        23.17703         1.20462
C         29.18935        22.48893         1.39685
C         30.40172        24.60182         1.15230
C         29.17540        25.31543         1.33935
C         30.41333        27.47086         1.25685
C         29.21506        26.74474         1.43428
C         30.42384        28.92317         1.28397
C         29.24468        29.67480         1.55262
C         30.45752        31.80188         1.27490
C         29.25438        31.08247         1.55459
C         30.47341        33.24659         1.27876
C         29.28343        34.00783         1.46016
C         30.51928        36.10909         1.14696
C         29.29154        35.40857         1.35277
C         30.52246        37.53877         0.84238
C         29.33050        38.26201         0.68458
C         30.54949        40.26458        -0.09837
C         29.30998        39.60609         0.17841
C         30.54865        41.58984        -0.60050
C         29.33951        42.28835        -0.88599
C         30.61836        44.33328        -1.75166
C         29.32994        43.61892        -1.46538
C         30.62750        45.87235        -2.03623
C         29.28409        46.41910        -2.49630
C         30.43095        48.73852        -2.21488
C         29.24324        47.91653        -2.69007
C         30.35344        50.20769        -2.14082
C         29.17119        50.78591        -2.54497
C         32.89813        20.35892         1.21125
C         31.74946        21.06909         1.36187
C         32.78664        23.16920         0.59321
C         31.64393        22.46452         1.00798
C         32.81641        24.59935         0.60174
C         31.62191        25.31825         0.92965
C         32.83874        27.45642         0.75797
C         31.62255        26.74687         0.98304
C         32.83044        28.88188         0.78009
C         31.64477        29.62595         1.01701
C         32.88245        31.81119         0.91186
C         31.65482        31.07536         1.02616
C         32.92981        33.18948         1.08930
C         31.71407        33.94908         1.19391
C         33.02164        36.11674         1.33948
C         31.72306        35.37094         1.17619
C         33.00318        37.49252         0.73255
C         31.78027        38.19513         0.56085
C         33.04687        40.21370        -0.05587
C         31.78522        39.54847         0.11872
C         33.08858        41.56990        -0.45827
C         31.86058        42.10238        -1.14072
C         33.06110        44.37855        -0.80425
C         31.89211        43.62330        -1.36608
C         32.96837        45.62551        -0.20813
C         31.14885        46.76229        -0.94302
C         32.20154        48.95785        -0.46451
C         31.26900        48.10091        -1.17517
C         32.62598        50.15230        -0.96221
C         31.70425        50.90854        -1.94729
C         32.65546        52.95429        -0.87758
C         31.59882        52.33043        -1.42381
C         35.39390        18.82254         0.69844
C         35.34210        20.21689         0.47176
C         34.01805        20.90346         0.43504
C         35.22643        23.12245        -0.16885
C         33.94721        22.39892         0.11541
C         35.26524        24.61029        -0.03427
C         34.02630        25.32026         0.30048
C         35.24969        27.47318         0.06988
C         34.02301        26.71979         0.40680
C         35.37835        28.84351         0.69256
C         34.08522        29.60117         0.46730
C         35.44222        31.75735         0.69000
C         34.12496        31.08829         0.56712
C         35.47665        33.12417         0.87688
C         34.25523        33.86859         1.36773
C         35.46383        35.97719         0.78379
C         34.25992        35.32445         0.99703
C         35.47926        37.40297         0.58338
C         34.24486        38.12773         0.50223
C         35.50930        40.19367         0.02387
C         34.26487        39.51536         0.16643
C         35.52146        41.57196        -0.27999
C         34.31789        42.25689        -0.54665
C         35.48509        44.42927        -0.33718
C         34.33618        43.70964        -0.68507
C         35.42442        45.85290        -0.06876
C         34.11363        46.46094         0.04620
C         35.18735        48.70560         0.30148
C         34.03899        47.82194         0.32033
C         35.11977        50.05045         0.01122
C         33.95710        50.76920        -0.62448
C         35.13215        53.08121        -0.19929
C         33.97477        52.29315        -0.69464
C         35.18333        54.44912        -0.26708
C         37.82011        18.82207         0.44319
C         36.59697        18.14360         0.65948
C         37.80087        20.24258         0.30432
C         36.54032        20.91645         0.27327
C         37.75464        23.16703         0.23099
C         36.51755        22.35702        -0.08298
C         37.75205        24.50656        -0.53394
C         36.46227        25.26016        -0.23528
C         37.80539        27.43954        -0.12156
C         36.51411        26.72984        -0.25992
C         37.81311        28.85819         0.01018
C         36.62202        29.59549         0.28155
C         37.89742        31.70239         0.38450
C         36.65283        31.00431         0.43059
C         37.93788        33.11536         0.56123
C         36.71608        33.83723         0.74893
C         37.95826        35.94784         0.60111
C         36.72345        35.24856         0.72681
C         37.96338        37.36116         0.51207
C         36.71976        38.07859         0.43775
C         37.97845        40.19156         0.28749
C         36.73517        39.47410         0.21321
C         37.96438        41.58509         0.20750
C         36.82757        42.28671        -0.47510
C         37.84795        44.45542         0.25187
C         36.74499        43.75518        -0.14824
C         37.79550        45.88921         0.52433
C         36.53325        46.58454         0.30506
C         37.74550        48.77694         0.27896
C         36.48774        48.03992         0.73080
C         37.69045        50.17355         0.14633
C         36.36888        50.85198         0.26219
C         37.65905        53.06883         0.05580
C         36.36474        52.35275         0.17566
C         37.62065        54.51389         0.08131
C         36.39681        55.16145        -0.03169
C         40.28994        15.98617         0.19464
C         39.10666        16.67434         0.35382
C         40.27521        18.81183         0.11370
C         39.06600        18.09577         0.31477
C         40.27581        20.24948         0.08493
C         39.03922        20.96958         0.16249
C         40.22526        23.12214        -0.07455
C         39.04599        22.39821         0.05194
C         40.23158        24.56179        -0.18730
C         39.02267        25.27873        -0.22459
C         40.26833        27.40532        -0.21891
C         39.01608        26.70286        -0.18264
C         40.24964        28.82262        -0.30355
C         39.06244        29.55938        -0.13144
C         40.32901        31.67570         0.03028
C         39.11302        30.99030         0.06562
C         40.46789        33.04676         0.62690
C         39.17790        33.82483         0.54308
C         40.46153        35.94469         0.44779
C         39.20372        35.22381         0.56667
C         40.46210        37.35070         0.40884
C         39.20481        38.07459         0.47913
C         40.50293        40.20763         0.67307
C         39.20288        39.47259         0.46707
C         40.46334        41.65749         0.31309
C         39.18460        42.33540         0.52094
C         40.37197        44.56270         0.15501
C         39.15142        43.81622         0.51674
C         40.32881        45.95615         0.07210
C         39.09657        46.67300         0.45895
C         40.18094        48.83422        -0.10167
C         38.99107        48.12017         0.19415
C         40.12955        50.24007        -0.17858
C         38.89143        50.91560        -0.02476
C         40.12203        53.08862         0.08585
C         38.86058        52.37268        -0.00198
C         40.09729        54.50155         0.30484
C         38.87467        55.23792         0.25259
C         40.12900        57.31093         0.56357
C         38.91730        56.63539         0.38653
C         42.74226        15.98428        -0.14560
C         41.51276        16.68135         0.00610
C         42.74098        18.81410        -0.18079
C         41.50945        18.10656        -0.02498
C         42.73180        20.24996        -0.18457
C         41.50876        20.93831        -0.04010
C         42.68453        23.08530        -0.60127
C         41.54744        22.43201         0.17168
C         42.72452        24.57404        -0.36602
C         41.50080        25.26886        -0.25530
C         42.74865        27.39913        -0.42158
C         41.50060        26.69550        -0.29244
C         42.76784        28.80319        -0.56895
C         41.49219        29.51072        -0.64993
C         42.83330        31.70119        -0.42117
C         41.52005        31.04136        -0.49660
C         42.86609        33.09572        -0.26789
C         41.67326        33.81304         0.11757
C         42.94390        35.91957        -0.04307
C         41.67806        35.19610         0.21389
C         42.93521        37.40398        -0.14109
C         41.65491        38.10363         0.10038
C         42.84614        40.23958        -0.28874
C         41.67054        39.48544         0.07401
C         42.83723        41.65610        -0.22320
C         41.60542        42.37229         0.03800
C         42.74847        44.51017        -0.40883
C         41.58147        43.82411        -0.09368
C         42.69526        45.96202        -0.79901
C         41.47791        46.71790        -0.30149
C         42.66723        48.87781        -0.43829
C         41.44150        48.11657        -0.30502
C         42.67702        50.26235        -0.32474
C         41.37780        51.01663        -0.55416
C         42.57454        53.08252         0.31203
C         41.35278        52.41854        -0.00296
C         42.53577        54.44394         0.68271
C         41.32327        55.17849         0.56558
C         42.60516        57.29409         0.78163
C         41.33076        56.60702         0.67175
C         43.92626        16.67075        -0.28806
C         45.21084        18.81655        -0.36605
C         43.96370        18.09537        -0.29056
C         45.21438        20.24015        -0.34344
C         43.98172        20.96808        -0.28951
C         45.20728        23.10235        -0.34906
C         44.00046        22.38345        -0.35305
C         45.21429        24.54766        -0.40152
C         43.96357        25.25849        -0.42975
C         45.21564        27.38569        -0.61239
C         43.98328        26.68494        -0.46053
C         45.22312        28.80531        -0.74183
C         43.98919        29.51688        -0.69420
C         45.24263        31.62532        -0.95126
C         44.01350        30.95161        -0.69273
C         45.22967        33.06047        -1.04647
C         44.06558        33.79389        -0.66031
C         45.14156        35.92062        -1.25586
C         44.06600        35.20705        -0.67722
C         45.24616        37.37434        -1.19932
C         43.92700        38.10389        -1.05712
C         45.23051        40.26856        -0.85895
C         44.03257        39.56931        -0.71212
C         45.25295        41.69753        -0.68010
C         44.02499        42.39118        -0.46059
C         45.21705        44.54360        -0.53844
C         44.00017        43.82072        -0.49252
C         45.19908        45.99531        -0.49641
C         43.98859        46.67926        -0.54008
C         45.25398        48.88479        -0.43056
C         43.93891        48.13755        -0.64064
C         45.17686        50.29340        -0.01440
C         43.90885        51.00462        -0.10049
C         45.06850        53.12067         0.53748
C         43.83904        52.37157         0.22246
C         45.00849        54.43860         1.17805
C         43.69302        55.13834         1.36086
C         43.74272        56.61315         1.02859
C         47.65060        18.82113        -0.47069
C         46.45864        18.13714        -0.44297
C         47.68935        20.24571        -0.42765
C         46.45336        20.95628        -0.38146
C         47.68380        23.08466        -0.28001
C         46.45718        22.38493        -0.33509
C         47.69814        24.56660         0.01946
C         46.42912        25.26857        -0.38882
C         47.69774        27.39340        -0.73660
C         46.45356        26.67070        -0.58029
C         47.69826        28.78002        -0.99147
C         46.44947        29.50443        -0.98099
C         47.63509        31.52619        -1.87183
C         46.43298        30.90052        -1.18835
C         47.62010        33.06612        -1.94277
C         46.32913        33.74758        -1.61915
C         47.91457        36.16004        -1.89272
C         46.12955        35.11064        -1.88095
C         47.74885        37.45533        -1.34940
C         46.44915        38.09599        -1.24007
C         47.68068        40.22789        -0.86167
C         46.47924        39.54071        -1.02570
C         47.74838        41.72853        -1.03199
C         46.45783        42.43005        -0.71115
C         47.69451        44.54372        -0.34024
C         46.45259        43.83492        -0.55398
C         47.67609        45.94107        -0.14307
C         46.45156        46.69539        -0.29015
C         47.63848        48.77007         0.30784
C         46.45724        48.08940        -0.12491
C         47.58163        50.15189         0.61419
C         46.34142        50.87959         0.47460
C         47.39363        52.83732         1.69078
C         46.36420        52.33543         0.70341
C         47.37131        54.33022         1.82605
C         46.18578        55.02175         1.68039
C         50.19380        20.28705        -0.51447
C         48.92341        20.96731        -0.38732
C         50.15773        23.12899        -0.06300
C         48.89835        22.37787        -0.27056
C         50.17906        24.58394        -0.35330
C         48.96227        25.27623        -0.42357
C         50.17915        27.37646        -0.82122
C         48.94805        26.67303        -0.67450
C         50.17691        28.80107        -1.01304
C         48.94190        29.51074        -1.14260
C         50.16417        31.64066        -1.40883
C         48.94704        30.90928        -1.40313
C         50.19674        33.08691        -1.52812
C         48.95090        33.84320        -1.85385
C         50.16317        35.95970        -1.12852
C         48.99081        35.31051        -1.58205
C         50.14995        37.37260        -0.90057
C         48.92966        38.10754        -0.92215
C         50.11045        40.19908        -0.36473
C         48.92178        39.52456        -0.69910
C         50.11603        41.64336        -0.13429
C         48.94253        42.39004        -0.38927
C         50.11072        44.46422         0.21490
C         48.91510        43.79142        -0.17823
C         50.10016        45.88521         0.37367
C         48.89056        46.62822         0.19507
C         50.08297        48.72722         0.71272
C         48.87225        48.03660         0.41671
C         50.04034        50.14627         0.99745
C         48.78859        50.83684         1.01737
C         49.92066        52.86323         1.76878
C         48.74486        52.19892         1.43643
C         51.38218        20.93241        -0.43433
C         52.70580        23.12241        -0.36004
C         51.45864        22.36463        -0.10368
C         52.67430        24.53187        -0.50224
C         51.41911        25.25810        -0.53180
C         52.65859        27.38040        -0.85654
C         51.41607        26.66653        -0.74103
C         52.65332        28.79652        -1.01304
C         51.40732        29.51169        -1.08556
C         52.63740        31.64946        -1.16874
C         51.40009        30.93425        -1.21262
C         52.63877        33.07719        -1.17971
C         51.38623        33.79069        -1.31279
C         52.59799        35.96185        -1.03439
C         51.40983        35.24500        -1.14631
C         52.60204        37.37923        -0.78367
C         51.36372        38.07400        -0.65985
C         52.55333        40.11633         0.00682
C         51.34146        39.46551        -0.33503
C         52.47377        41.43023         0.75456
C         51.28859        42.28987         0.32730
C         52.49546        44.41008         0.85913
C         51.30945        43.70904         0.46692
C         52.52340        45.81810         0.95137
C         51.30774        46.57632         0.70006
C         52.57561        48.69075         0.97344
C         51.29600        47.98614         0.79435
C         52.54586        50.19080         1.28478
C         51.22402        50.85858         1.34649
C         51.15254        52.20460         1.70326
C         55.12796        23.13081        -0.52523
C         53.93182        22.44169        -0.39499
C         55.14477        24.53522        -0.62943
C         53.90489        25.24155        -0.64420
C         55.12608        27.37654        -0.89634
C         53.89418        26.66966        -0.79079
C         55.10786        28.78000        -1.08221
C         53.89080        29.50086        -1.11386
C         55.08948        31.68274        -1.09335
C         53.88407        30.94993        -1.14958
C         55.09188        33.10037        -0.98588
C         53.85472        33.78522        -1.08173
C         55.11056        35.94469        -0.79461
C         53.89026        35.26344        -1.35033
C         55.09591        37.41541        -0.84676
C         53.80541        38.11658        -0.64294
C         55.04884        40.10522         0.32269
C         53.77498        39.45491        -0.18179
C         54.95505        41.62055         0.44149
C         53.77266        42.21148         0.72700
C         54.99073        44.35816         1.31460
C         53.68766        43.60282         1.31925
C         54.92051        45.75932         1.87504
C         53.71695        46.51593         1.34305
C         54.92843        48.62471         1.79462
C         53.75801        47.91758         1.38861
C         54.83442        49.99883         2.17217
C         53.68189        50.72145         2.04002
C         57.65009        24.58233        -0.59182
C         56.39892        25.26147        -0.69280
C         57.62706        27.38518        -0.83125
C         56.38370        26.66656        -0.82208
C         57.64886        28.79800        -0.97588
C         56.38496        29.48330        -1.28713
C         57.62204        31.70117        -0.91181
C         56.37904        31.00207        -1.27023
C         57.57170        33.10948        -0.69252
C         56.33234        33.81947        -0.80611
C         57.54875        35.97266        -0.36940
C         56.31695        35.25542        -0.68228
C         57.56953        37.38885        -0.25713
C         56.38176        38.16762        -0.67561
C         57.52966        40.27570         0.21097
C         56.31017        39.68727        -0.46604
C         57.49039        41.64593         0.52525
C         56.22517        42.44744         0.26782
C         57.44130        44.43813         1.27066
C         56.17791        43.74932         1.04277
C         57.43144        45.83771         1.55881
C         56.20505        46.52871         1.70853
C         57.43559        48.63278         1.89588
C         56.19596        47.92591         1.83929
C         58.84183        25.26672        -0.58626
C         60.07460        27.41736        -0.67672
C         58.85862        26.68459        -0.69323
C         60.06913        28.79307        -0.74626
C         58.85324        29.52176        -0.88570
C         60.01705        31.71296        -0.53563
C         58.83409        30.98462        -0.81824
C         59.98449        33.07917        -0.32277
C         58.77603        33.80747        -0.37705
C         59.90070        35.93562         0.27251
C         58.74656        35.23914        -0.14894
C         59.87788        37.30293         0.48008
C         58.71857        38.06335         0.21143
C         59.82864        40.16926         0.96993
C         58.69581        39.51129         0.44750
C         59.81915        41.53489         1.20535
C         58.65967        42.30031         0.97782
C         59.87879        44.46940         1.33792
C         58.66135        43.74804         1.19633
C         59.88390        45.83593         1.53028
C         58.66455        46.55246         1.64390
C         58.63493        47.96262         1.83116
O         31.51964        43.79330        -2.77917
O         28.73302        45.68761        -3.63173
O         46.95612        35.73447        -2.81940
O         46.14620        53.09408        -0.50317
O         24.96969        43.56505        -2.94662
O         27.42012        33.89931         3.07896
O         38.52795        46.27878         1.76277
O         28.04945        37.23278         2.50275
O         35.89712        22.62647        -1.38239
O         30.31638        48.28826        -3.60518
O         27.39739        31.38028         3.19218
O         31.71575        46.14563         0.16849
O         25.40173        27.32954        -0.47874
O         32.81351        48.38620         0.66081
O         26.27972        25.95362         2.74783
O         44.71808        48.65363        -1.78284
O         34.02333        30.39587        -0.75152
O         34.44362        51.48164        -1.84174
O         36.23915        51.65658         1.49291
O         28.05974        28.16254         3.10269
O         48.32208        33.50598        -3.14394
O         52.87016        49.69486        -0.05642
O         35.66347        27.35528        -1.31130
O         33.61614        21.39502        -0.88770
O         50.83775        22.74203         1.18568
O         55.91161        37.84915        -2.03513
O         43.44428        36.78419         1.07379
O         41.34304        30.39525        -1.80611
O         56.44948        30.25313        -2.54034
O         39.16565        43.10010         1.82428
O         36.50244        48.05650         2.18474
H         37.27765        47.50832         2.46390
O         42.38432        22.89798        -2.01596
H         43.05606        23.38314        -2.53882
O         56.25077        42.88731        -1.12070
H         56.29383        42.06939        -1.67829
O         34.36826        33.83822         2.84119
H         33.80736        34.58142         3.18071
O         32.27272        50.94784        -3.27183
H         33.21639        51.22283        -3.16990
O         31.55460        46.11026        -3.11598
H         31.12442        45.81530        -3.94767
O         41.31132        51.19131        -2.01822
H         41.49086        50.31958        -2.43065
O         37.83463        24.27950        -1.95677
H         37.04114        23.74935        -2.21745
O         52.22503        41.03404         2.14746
H         52.26289        41.86734         2.67913
O         31.95449        41.42331        -2.44098
H         31.62025        42.06506        -3.11594
O         47.95401        41.91872        -2.48686
H         47.16196        41.56391        -2.94403
O         54.70364        45.66656         3.32931
H         53.94484        45.04657         3.45609
O         56.22052        40.29839        -1.77615
H         55.96522        39.57649        -2.40659
O         47.50257        31.06898        -3.25622
H         47.98254        31.72737        -3.81197
O         40.72839        32.83681         2.06820
H         40.80908        33.72312         2.48196
O         33.12398        36.32774         2.82236
H         33.84539        36.97780         2.96972
O         47.71583        24.65923         1.49177
H         48.51236        24.17769         1.80518
O         43.28284        38.04096        -2.37661
H         43.89259        38.44273        -3.03086
O         46.94842        52.29254         2.98564
H         47.54427        52.64421         3.68018
O         37.13833        42.22821        -1.92266
H         36.96864        41.31030        -2.22473
O         43.40187        55.06540         2.81024
H         42.55109        55.53187         2.95690
O         53.41695        43.35207         2.77469
H         54.20654        42.88715         3.13029
O         55.23073        39.61027         1.68228
H         54.39456        39.78553         2.16878
O         35.48911        28.60302         2.12989
H         35.66786        29.45826         2.57529
O         54.02890        35.39157        -2.82018
H         54.93127        35.08968        -3.05985
O         41.83903        22.63502         1.59204
H         41.19411        22.10901         2.10997
O         24.47360        46.82285        -0.13799
H         25.15156        47.52514        -0.04100
O         42.55560        45.95074        -2.27613
H         42.93058        46.79217        -2.61619
O         37.65755        23.47085         1.65448
H         38.46879        23.95795         1.91394
O         40.73396        40.20552         2.13589
H         40.16078        40.90504         2.52093
H         22.16423        27.11796         0.29355
H         22.14673        29.50057         0.72801
H         22.15475        31.38442         0.75204
H         22.15454        33.79995         0.79417
H         22.13732        35.67295         1.01527
H         22.16315        38.04139         0.53757
H         22.17966        39.88222         0.18903
H         22.19408        42.13893        -0.73082
H         22.10826        43.85233        -1.71815
H         22.14873        46.27826        -1.78353
H         25.39516        23.56018         0.79749
H         23.43419        24.86592         0.17193
H         25.39388        49.47505        -3.11081
H         23.33824        48.34297        -2.41055
H         27.05120        22.61785         1.59721
H         27.04584        50.57953        -2.88181
H         29.17135        21.39187         1.42543
H         29.08268        51.88107        -2.60559
H         32.98501        19.36257         1.66656
H         30.91195        20.60376         1.89973
H         32.55005        53.98771        -0.51522
H         30.64865        52.87464        -1.53639
H         34.46546        18.25638         0.85127
H         34.28865        55.03042        -0.53128
H         36.58432        17.05412         0.79041
H         36.34802        56.25836        -0.03004
H         40.29681        14.88697         0.21734
H         38.18237        16.10066         0.50041
H         40.13607        58.40848         0.62701
H         37.99177        57.22445         0.33691
H         42.73819        14.88483        -0.13657
H         42.62389        58.38363         0.62779
H         44.85636        16.09683        -0.39104
H         44.70113        57.14730         1.09467
H         48.58425        18.24533        -0.50996
H         46.48681        17.04017        -0.47016
H         48.22940        54.85038         2.27405
H         46.15211        56.06874         2.01768
H         50.19898        19.21414        -0.74888
H         49.90432        53.91582         2.07978
H         52.30760        20.37844        -0.64393
H         52.06486        52.76745         1.93924
H         56.06242        22.55640        -0.52591
H         53.96048        21.35019        -0.28106
H         55.68925        50.46152         2.68536
H         53.60728        51.70885         2.51575
H         57.67520        23.48913        -0.49861
H         57.43398        49.72734         1.98930
H         59.79317        24.72387        -0.49212
H         61.02566        26.87290        -0.58830
H         61.02873        29.32469        -0.70813
H         60.98419        31.19861        -0.47118
H         60.93056        33.59385        -0.11094
H         60.83493        35.39410         0.46839
H         60.79517        37.78897         0.83463
H         60.75048        39.61328         1.18167
H         60.73027        42.01057         1.59159
H         60.83838        43.94193         1.25269
H         60.83636        46.38111         1.59762
H         59.58370        48.51495         1.89317
