         276
 CSIRO Nanostructure Databank - Neutral Graphene Oxide Data Set
C        -11.31005         0.66640        -0.65868
C        -10.01485         1.37570        -0.97233
C         -8.78887         0.56191        -0.50127
C         -7.43922         1.22180        -0.48958
C         -6.15767         0.50768        -0.03045
C         -5.15548         1.42612         0.65005
C         -3.89802         0.71867         1.11007
C         -2.61628         1.47774         1.17436
C         -1.33905         0.69651         0.95250
C         -0.07403         1.48659         0.76752
C          1.00179         0.79370        -0.06448
C          2.32411         1.54221         0.08623
C          3.59080         0.79758        -0.04636
C          4.85655         1.51741        -0.37980
C          6.01793         0.80184         0.24046
C          7.25930         1.58076         0.56958
C          8.52122         0.80308         0.86123
C          9.87136         1.51624         0.81511
C         10.76019         0.87435        -0.22776
C         -9.87623         2.82558        -0.57204
C         -8.66381         3.45730        -0.66002
C         -7.40307         2.70012        -0.67251
C         -6.22490         3.40001        -0.57245
C         -5.13378         2.88196         0.30125
C         -3.95137         3.77566         0.70637
C         -2.62784         3.00156         1.05805
C         -1.32704         3.76283         1.02288
C          0.03875         3.02904         0.99425
C          1.07469         3.73995         0.10743
C          2.32313         3.00629        -0.22687
C          3.64841         3.76413        -0.10901
C          4.87672         2.98319        -0.59080
C          6.21685         3.67138        -0.51875
C          7.35639         2.98838         0.12308
C          8.59336         3.67144         0.25066
C          9.75100         3.00579         0.61634
C         -8.55105         4.89586        -0.41116
C         -7.38963         5.58892        -0.59922
C         -6.22456         4.77985        -1.19541
C         -4.81607         5.38147        -1.19317
C         -3.69126         4.84823        -0.35850
C         -2.54687         5.78640        -0.07108
C         -1.34917         5.24011         0.64040
C         -0.04875         5.98667         0.52270
C          1.20694         5.22708         0.27860
C          2.28102         5.96527        -0.52563
C          3.59719         5.17961        -0.67591
C          4.90496         5.88876        -0.87935
C          6.23114         5.17224        -0.69386
C          7.41459         5.92454        -0.20479
C          8.71472         5.13834        -0.15183
C         -7.29708         7.02238        -0.30859
C         -6.50203         7.86152        -1.03138
C         -4.69263         6.77811        -1.68251
C         -3.64685         7.60881        -1.47365
C         -2.40415         7.02263        -0.92204
C         -1.21583         7.89416        -0.74142
C         -0.10776         7.45042         0.15735
C          1.16699         8.20343         0.00708
C          2.45053         7.41281        -0.02825
C          3.69384         8.13765        -0.40557
C          4.93665         7.39199        -0.82332
C          6.20475         8.09129        -0.42446
C          7.39522         7.27310        -0.08325
C         -6.06964         9.21219        -0.68570
C         -4.87831         9.75513        -1.02990
C         -3.74584         9.09649        -1.81935
C         -2.44044         9.85363        -1.59318
C         -1.26967         9.32619        -1.14727
C         -0.01953        10.09024        -1.06591
C          1.14861         9.56053        -0.60959
C          2.40468        10.36683        -0.31265
C          3.70754         9.63585        -0.72965
C          4.94940        10.20882        -0.06199
C          6.07198         9.48286         0.09052
C        -11.40358        -0.65353        -0.43822
C        -10.28860        -1.53053         0.09128
C         -8.98032        -0.71971         0.26893
C         -7.72346        -1.42367         0.70631
C         -6.40598        -0.65768         0.97177
C         -5.14577        -1.52232         0.97118
C         -3.84133        -0.78744         0.98598
C         -2.61249        -1.46496         0.51673
C         -1.39483        -0.74742         0.48622
C         -0.18553        -1.44493         0.24130
C          1.09987        -0.69638         0.30341
C          2.39361        -1.42002         0.04358
C          3.49349        -0.60989        -0.62840
C          4.92533        -1.24789        -0.81988
C          5.96839        -0.69810         0.17549
C          7.26262        -1.44055         0.35141
C          8.53212        -0.71355         0.71545
C          9.90661        -1.36811         0.46266
C         10.76160        -0.45278        -0.39714
C         -9.98430        -2.85305        -0.61027
C         -8.81535        -3.57667         0.04887
C         -7.68725        -2.90301         0.49078
C         -6.41226        -3.58093         0.46669
C         -5.17015        -2.91541         0.49585
C         -3.91977        -3.55714         0.22725
C         -2.67939        -2.86529         0.22130
C         -1.43695        -3.58398        -0.09182
C         -0.16272        -2.84718        -0.04657
C          1.07089        -3.51990        -0.27674
C          2.35666        -2.86780        -0.25996
C          3.55431        -3.50597        -0.58124
C          4.86739        -2.81214        -0.96731
C          6.10032        -3.50721        -0.36424
C          7.27287        -2.85646        -0.09479
C          8.54573        -3.58478         0.00758
C          9.82574        -2.77822        -0.16010
C         -8.94274        -5.08075         0.10787
C         -7.63755        -5.83664         0.29466
C         -6.41037        -5.05200         0.58475
C         -5.09108        -5.73893         0.54735
C         -4.06116        -4.97588        -0.30883
C         -2.73775        -5.74604        -0.60753
C         -1.47303        -4.94518        -0.35876
C         -0.24906        -5.67813        -0.73970
C          1.05336        -4.93584        -0.71141
C          2.29474        -5.74399        -0.38566
C          3.56483        -4.97313        -0.73719
C          4.86230        -5.72513        -0.57693
C          6.07464        -4.98973        -0.07343
C          7.38291        -5.74176        -0.55744
C          8.59838        -4.93407        -0.14385
C         -7.56527        -7.13482        -0.07702
C         -6.26024        -7.87279        -0.27545
C         -5.14142        -7.25957         0.58860
C         -3.82642        -7.89696         0.24152
C         -2.66482        -7.17200        -0.04447
C         -1.44991        -7.88993        -0.16418
C         -0.25065        -7.19360        -0.69751
C          1.03847        -7.95417        -0.82260
C          2.34362        -7.16983        -1.02358
C          3.56415        -7.93430        -0.50674
C          4.83618        -7.19843        -0.31396
C          6.16591        -7.97640        -0.62624
C          7.30238        -7.15524        -0.07813
C         -6.27429        -9.35932         0.03945
C         -5.12352       -10.00073         0.33424
C         -3.82854        -9.30841         0.32199
C         -2.60873        -9.98957         0.25662
C         -1.41416        -9.28533         0.03788
C         -0.16482       -10.12559        -0.12496
C          1.12955        -9.36747        -0.35536
C          2.30401       -10.03202        -0.30236
C          3.60833        -9.42726        -0.79207
C          4.84409       -10.03387        -0.15442
C          6.00764        -9.37307        -0.06614
O         -5.89581         7.30693        -2.19002
O          7.35085        -5.66589        -2.01163
H          8.18585        -6.05445        -2.34773
O          3.08005         1.16071         1.27283
O         -6.55973         4.58995        -2.59678
H         -6.57627         5.48311        -3.00900
O          6.57633         4.30291        -1.81704
O         -8.65897        -0.81146         1.67644
O         -0.03332       -11.02407         0.98337
H          0.04201       -10.49738         1.80505
O          7.76588        -1.39594         1.73877
O          0.14868        -7.79728        -1.98770
O          5.76812         7.98927        -1.85251
O         -4.78311        -4.78273        -1.55737
H         -4.19336        -5.06556        -2.29629
O         -2.02327         3.54196         2.27948
O         -2.35512         6.02402         1.35421
O          1.99586        -1.07100         1.39260
O         -5.54856        -5.23630         1.83077
O          6.20892        -8.08525        -2.05446
H          6.35202        -7.18037        -2.42111
O         -2.71677        -5.97952        -2.05624
H         -1.80806        -6.23890        -2.32458
O          1.35221         3.34031        -1.26047
O          0.39614        -5.18021        -1.98827
O          4.83543         2.06582        -1.73137
O        -10.79137        -1.95354         1.38280
H        -10.21795        -1.54273         2.07485
O          0.61449         3.17818         2.29886
H          0.01456         2.73030         2.93776
O         -4.38796         4.47539         1.87492
H         -3.62523         4.52630         2.49988
O         -7.89752         0.43377        -1.66698
O          4.35710        -5.44499        -1.90255
O         -0.35230         0.83346         2.02966
O         -1.29729         6.95659        -1.88956
O          0.36777         8.27293         1.25340
O         -3.35237         1.12493         2.39172
O         -4.38199        -1.41630         2.21532
O          4.07080        -7.62438         0.84402
O          5.50188        -0.02018         1.34921
O          2.53370        -7.05961        -2.44468
H          1.64826        -6.84890        -2.83100
O         -9.58039        -2.55550        -1.98283
O          4.14654         5.33212        -2.00682
O          7.71973         1.32078         1.95419
O        -10.03954         1.41262        -2.42967
H         -9.10423         1.33700        -2.73442
O         -5.95597        -7.72672        -1.68549
H         -5.13680        -8.23289        -1.87147
O          1.71337         6.12326        -1.84306
H          2.40998         5.90680        -2.50732
O         -6.52583        -0.07270         2.27016
H         -5.71437        -0.29699         2.78703
O         -9.86394        -5.36473         1.18128
H         -9.53611        -4.93178         1.99662
O          2.42877        10.62054         1.09522
H          2.34325         9.76313         1.56787
O          5.02621        -3.03055        -2.39902
H          4.93735        -4.00349        -2.57822
O          0.56243         0.84711        -1.43341
H          1.29265         0.48554        -1.99536
O         10.49036         1.27659         2.11960
H          9.80983         1.50659         2.79158
O          2.97173        -0.40895        -1.97085
H          3.75156        -0.13594        -2.52117
O          0.90767         5.72323         1.59507
O         -3.80411         4.44364        -1.74181
O          9.25914         5.17750        -1.48351
H          8.55586         4.84080        -2.08616
O          6.00811        -5.10608         1.36186
H          6.68977        -4.52453         1.76152
O          9.95568        -2.61947        -1.58588
H          9.85760        -3.49802        -2.00712
O         -4.06143         9.23037        -3.22435
H         -3.38196         8.73931        -3.73156
O         -5.74600         2.35528         1.55872
O          3.67236        -9.63650        -2.22036
H          3.26524        -8.85408        -2.66265
O         -5.47856        -0.02116        -1.18843
H         -6.16152        -0.18294        -1.88241
O          3.41059         7.76385         0.99959
O          3.87275         3.93031         1.31319
H          3.63858         3.08690         1.77218
O          3.79839         9.78963        -2.15702
H          4.62621         9.33713        -2.45294
O         10.55695        -1.51362         1.73835
H         10.67201        -0.60437         2.11547
O          5.43311        -0.68504        -2.05348
H          5.45721        -1.40860        -2.72912
O         -5.42423        -7.69107         1.94209
H         -5.58097        -6.87851         2.48178
O         -9.58653        -3.84241        -2.68663
H         -9.37687        -3.55918        -3.60959
O          2.20290        -5.85435         1.04878
H          2.98340        -6.36820         1.38266
H         11.43633        -0.91071        -1.13503
H         11.42142         1.51847        -0.82621
H         10.68417         3.58166         0.70898
H          9.44720         5.65180         0.52034
H          8.30335         7.80425         0.24261
H          6.95215         9.92134         0.58569
H          4.91075        11.24270         0.31200
H          2.36913        11.35351        -0.83458
H         -0.04563        11.13634        -1.40909
H         -2.45658        10.91048        -1.90514
H         -4.67388        10.77888        -0.67587
H         -6.74420         9.79726        -0.03938
H         -7.88295         7.41474         0.53651
H         -9.45681         5.42400        -0.07672
H        -10.78688         3.42350        -0.41243
H        -12.22613         1.23008        -0.89655
H        -12.40450        -1.11043        -0.38409
H        -10.88891        -3.50818        -0.63039
H         -9.43630        -5.44636        -0.82827
H         -8.48474        -7.64228        -0.41202
H         -7.22076        -9.91609        -0.03480
H         -5.12073       -11.08711         0.51085
H         -2.57756       -11.08575         0.33321
H         -0.32479       -10.77543        -1.02964
H          2.29298       -11.09168        -0.00054
H          4.76544       -11.06184         0.23283
H          6.88400        -9.85294         0.39522
H          7.50849        -7.28992         0.99796
H          9.58144        -5.43128        -0.19341
H         10.69507        -3.37969         0.22409
