         234
 CSIRO Nanostructure Databank - Neutral Graphene Oxide Data Set
C          1.45526         2.19640        -1.16333
C          1.52503         3.49370        -1.62713
C          2.60847         1.51666        -0.73999
C          2.81351         4.18620        -1.68622
C          1.66247         6.48410        -2.17423
C          1.57285         7.78976        -1.86202
C          2.89079         5.67940        -1.98859
C          2.69851         8.53607        -1.25025
C          1.44475        10.79963        -1.38001
C          1.48587        12.13349        -1.53789
C          2.63616        10.02335        -0.97184
C          2.69430        12.90616        -1.19475
C          1.27395        15.04550        -0.63346
C          1.21270        16.34117        -0.21834
C          2.57089        14.33579        -0.69736
C          2.36622        17.04588         0.27098
C          2.38398        18.43896         0.41255
C          3.87167         2.17150        -0.67485
C          3.98258         3.55133        -1.04765
C          5.01565         1.47365        -0.23735
C          5.18621         4.26382        -0.80829
C          4.14319         6.41734        -1.59656
C          4.05297         7.90411        -1.35869
C          5.27958         5.68767        -0.99997
C          5.21526         8.62021        -0.78507
C          3.92224        10.76725        -0.83321
C          3.92144        12.14507        -0.85264
C          5.15416        10.01006        -0.68652
C          5.19268        12.96449        -0.75554
C          3.63438        14.77947         0.30144
C          3.56960        16.27584         0.61860
C          5.02758        14.28279        -0.03267
C          4.85380        17.05500         0.84441
C          3.56305        19.16095         0.64306
C          4.82306        18.52718         0.73830
C          6.25357         2.13467        -0.07919
C          6.32466         3.55379        -0.30009
C          7.40621         1.41978         0.33049
C          7.52720         4.24749         0.01107
C          6.39747         6.41462        -0.52349
C          6.41506         7.86382        -0.50806
C          7.55898         5.70471        -0.04828
C          7.57930         8.53382        -0.06660
C          6.41069        10.76556        -0.56253
C          6.37833        12.18884        -0.25159
C          7.68344         9.99103        -0.20405
C          7.51216        12.84759         0.20582
C          6.17438        14.95663         0.35742
C          6.14247        16.36624         0.68698
C          7.46068        14.27776         0.40302
C          7.31789        17.10247         0.76223
C          6.03713        19.22768         0.73260
C          7.29035        18.55618         0.79316
C          8.60721         2.09080         0.61472
C          8.63345         3.51401         0.49200
C          9.81549         1.37442         0.91997
C          9.80153         4.23472         1.01947
C          8.70331         6.40958         0.36710
C          8.72793         7.83125         0.38597
C          9.99422         5.65444         0.54784
C          9.88500         8.57103         0.82580
C          8.77355        10.72201         0.45718
C          8.72021        12.12768         0.56408
C          9.88819         9.96303         0.91649
C          9.84529        12.86881         1.05893
C          8.61403        14.96972         0.78642
C          8.58289        16.41829         0.85931
C          9.82108        14.25521         1.08659
C          9.75194        17.14581         1.02128
C          8.50601        19.25564         0.76168
C          9.75657        18.57704         0.81678
C         11.02750         2.01199         1.19350
C         11.02247         3.47058         1.45615
C         12.26697         1.32956         1.12010
C         12.34919         4.17632         1.74612
C         11.06837         6.36357         1.34383
C         11.06741         7.85087         1.35286
C         12.36622         5.65176         1.39510
C         12.37136         8.55201         1.34620
C         11.08237        10.66180         1.47049
C         11.06163        12.16028         1.53919
C         12.39133         9.95793         1.38432
C         12.35105        12.90032         1.50990
C         10.99817        14.97971         1.70081
C         11.01355        16.47082         1.37825
C         12.32646        14.26555         1.44158
C         12.29534        17.16987         1.01785
C         10.96799        19.23362         0.54210
C         12.21392        18.54063         0.43673
C         13.51472         1.99542         1.10387
C         13.56548         3.44076         1.24946
C         14.70276         1.27970         0.82011
C         14.74898         4.13318         1.13832
C         13.55003         6.34435         1.33087
C         13.57449         7.81189         1.26970
C         14.79842         5.59212         1.20524
C         14.79196         8.52813         1.20531
C         13.61287        10.67008         1.39817
C         13.63030        12.13798         1.82169
C         14.81494         9.94536         1.27239
C         14.87868        12.89648         1.41060
C         13.56069        15.00837         1.19621
C         13.51727        16.35084         0.86590
C         14.82028        14.24718         1.16980
C         14.68296        17.02039         0.23841
C         13.33035        19.15243        -0.09392
C         14.60386        18.44003        -0.24759
C         15.95750         1.92216         0.73423
C         16.01099         3.36544         1.04490
C         17.13179         1.26464         0.34552
C         17.29908         4.10209         0.77780
C         15.97191         6.27562         0.97175
C         16.05151         7.74501         1.10932
C         17.16790         5.55816         0.47916
C         17.30274         8.47300         0.64441
C         16.18750        10.59723         1.44195
C         16.25167        12.18640         1.44531
C         17.13435         9.94489         0.40718
C         17.07659        12.81811         0.25932
C         16.08225        15.03510         0.97341
C         16.01897        16.49696         0.64195
C         17.32001        14.28763         0.56245
C         17.25380        17.24051         0.23809
C         15.85229        19.16886        -0.50806
C         17.10018        18.55266        -0.46332
C         18.34871         1.95625         0.04903
C         18.43087         3.37195         0.17328
C         19.48291         1.26507        -0.46621
C         19.58454         4.06600        -0.23855
C         18.39578         6.29049         0.03588
C         18.43973         7.75917         0.04544
C         19.67705         5.53528        -0.06662
C         19.52716         8.42379        -0.53871
C         18.21948        10.64528        -0.33841
C         18.34707        12.11176        -0.18058
C         19.38073         9.86234        -0.88829
C         19.44056        12.79442        -0.62898
C         18.43706        14.99858        -0.07698
C         18.59539        16.49002         0.18782
C         19.51284        14.26129        -0.55651
C         19.59567        17.11270        -0.75344
C         18.25225        19.17809        -0.98130
C         19.47856        18.46880        -1.15750
C         20.61506         1.94934        -0.86828
C         20.68823         3.36375        -0.77571
C         21.81833         4.10049        -1.30184
C         20.87289         6.28659        -0.62092
C         20.72014         7.74155        -0.90992
C         21.88985         5.45818        -1.29508
C         21.84696         8.49120        -1.36024
C         20.58099        10.61615        -1.41041
C         20.57441        12.14899        -1.43102
C         21.83493         9.85379        -1.51277
C         21.89097        12.79166        -1.07185
C         20.73791        14.92651        -0.89690
C         20.73460        16.35604        -1.11628
C         21.94097        14.14521        -0.95300
C         21.79896        16.99353        -1.80254
C         20.56450        19.07511        -1.84442
C         21.71387        18.34587        -2.13605
O         10.70978         7.05951         2.56794
O         16.95617         3.71565         2.13295
O          4.04953        16.53568         1.98036
O          4.43650         7.38680        -2.67424
O         16.62928        10.17043         2.71610
O          2.99396        14.07257        -2.07358
O         16.71490        17.34082         1.60840
O         19.54745        10.09203        -2.33118
O         14.50631        17.23287        -1.19634
O         10.02105         3.92913         2.43368
O         11.77638        17.19200         2.40771
O         20.72347         5.98936         0.83015
O         17.12687         8.12548         2.04635
O          3.12331         4.72340        -3.05536
O         10.85463        11.34623         2.75759
O          7.41748        10.42916        -1.58038
O          2.40972         9.03481         0.09909
O         17.12745        14.75683         1.93885
O         17.39822         5.80339        -0.96394
O         16.91992        10.26354        -0.99506
O         13.64800        12.08473         3.28338
H         12.76886        11.73856         3.56652
O          3.27658        14.07597         1.52923
H          3.64072        14.61439         2.27143
O         20.31973        12.53742        -2.81230
H         19.69204        11.86907        -3.17496
O          5.55716        13.31679        -2.14097
H          4.76175        13.75691        -2.53027
O         10.57948         5.54593        -0.79524
H          9.86984         5.28618        -1.42083
O         16.21880        12.83725        -0.91589
H         16.22809        11.92401        -1.29968
O         19.19552        16.56506         1.51095
H         18.48586        16.29222         2.14428
O         12.49265         4.15291         3.20000
H         11.62207         4.42776         3.57034
O         16.90794        12.53128         2.66517
H         16.82045        11.74159         3.26601
O         10.78821        14.88326         3.13718
H         11.34132        15.58648         3.54849
H          0.48904         1.67260        -1.15918
H          0.63248         3.98530        -2.03547
H          2.54044         0.46486        -0.42964
H          0.80171         5.98170        -2.63845
H          0.62126         8.31535        -2.02511
H          0.50973        10.25663        -1.57627
H          0.59695        12.67717        -1.88704
H          0.38342        14.56974        -1.06708
H          0.26341        16.89282        -0.29147
H          1.45066        18.99476         0.23782
H          4.93802         0.40346         0.00161
H          3.52106        20.25958         0.65923
H          7.34715         0.32821         0.44872
H          6.02415        20.32657         0.67729
H          9.80580         0.27946         0.80688
H          8.49690        20.35190         0.66987
H         12.25310         0.24244         0.94693
H         10.94201        20.29904         0.26756
H         14.64059         0.19659         0.63544
H         13.27161        20.20013        -0.42526
H         17.09536         0.17964         0.16394
H         15.77733        20.19711        -0.89430
H         19.44264         0.16996        -0.55651
H         18.16590        20.19242        -1.39864
H         21.47416         1.39654        -1.27530
H         22.61393         3.52288        -1.79623
H         22.71838         5.95514        -1.82036
H         22.79775         7.96077        -1.51243
H         22.76828        10.37191        -1.76976
H         22.81982        12.20526        -1.05909
H         22.91080        14.65316        -0.84412
H         22.68564        16.41405        -2.09387
H         20.48409        20.12794        -2.15003
H         22.54769        18.82892        -2.66417
