         651
 CSIRO Nanostructure Databank - Neutral Graphene Oxide Data Set
C          5.89881        31.88533         0.78943
C          5.90217        33.24177         0.67398
C          8.33842        27.56311         0.63373
C          8.32871        28.96569         0.57030
C          7.11825        29.72452         0.71865
C          8.31801        31.82556         0.27513
C          7.10316        31.10697         0.60168
C          8.29516        33.20126         0.05144
C          7.09551        33.97539         0.28849
C          8.21008        36.17260        -0.39134
C          7.09251        35.35315         0.21385
C          8.39156        37.53496         0.22153
C         10.81722        23.20888         0.70255
C         10.76922        24.63419         0.55918
C          9.56836        25.37979         0.62329
C         10.76870        27.50578         0.32558
C          9.54229        26.79918         0.51424
C         10.79735        28.94303         0.27748
C          9.55948        29.69278         0.37728
C         10.79510        31.82665         0.07517
C          9.56081        31.09252         0.22087
C         10.81603        33.19150        -0.16226
C          9.53071        33.89429        -0.36488
C         10.81506        36.10474        -0.32273
C          9.52452        35.39859        -0.50839
C         10.84678        37.48234        -0.08625
C          9.60831        38.20533         0.19381
C         10.87641        40.34045         0.35736
C          9.67553        39.60545         0.46456
C         10.89917        41.75746         0.54135
C         13.32669        18.93906         0.38103
C         13.26831        20.34089         0.42049
C         12.05885        21.06613         0.66800
C         13.23897        23.18650         0.05065
C         12.00655        22.46652         0.55924
C         13.24689        24.65023         0.36189
C         12.01357        25.34649         0.41966
C         13.22014        27.46267         0.23400
C         12.00157        26.77916         0.32988
C         13.23572        28.87932        -0.09823
C         11.99745        29.62856         0.09340
C         13.32095        31.80986        -0.07450
C         12.07099        31.10174         0.38485
C         13.31168        33.21398        -0.24737
C         12.04875        33.93677        -0.31000
C         13.27825        36.09479        -0.60366
C         12.02401        35.33737        -0.41706
C         13.28769        37.54313        -0.38027
C         12.10273        38.21556        -0.09321
C         13.32689        40.38663         0.05482
C         12.09665        39.65099         0.07693
C         13.30812        41.83849         0.11253
C         12.04873        42.54289         0.35523
C         12.83561        44.94026         0.14316
C         11.94891        43.96343         0.63682
C         13.17555        46.23806         0.56070
C         15.86877        14.59506         0.17041
C         15.76601        16.02492         0.12393
C         14.58599        16.74785         0.23978
C         15.74792        18.91800         0.07342
C         14.56075        18.20084         0.23371
C         15.65869        20.35880        -0.31063
C         14.49842        21.10169         0.24828
C         15.81357        23.21402         0.33126
C         14.55305        22.47989         0.29489
C         15.72829        24.61821         0.57990
C         14.47403        25.31056         0.49829
C         15.78957        27.55156         0.50754
C         14.45961        26.77883         0.58637
C         15.81836        28.95283         0.13065
C         14.56948        29.64478        -0.15415
C         15.77718        31.80102        -0.00427
C         14.53986        31.11371        -0.07305
C         15.76015        33.21664        -0.00903
C         14.55975        33.90104        -0.25025
C         15.84403        36.11083        -0.22726
C         14.60062        35.35105        -0.51713
C         15.83517        37.51842        -0.28724
C         14.57200        38.28257        -0.67895
C         15.78701        40.30047         0.25548
C         14.53887        39.67988        -0.11621
C         15.79501        41.85157         0.36231
C         14.54890        42.51110        -0.00524
C         15.79916        44.63296        -0.07519
C         14.67700        43.87304        -0.37164
C         15.73347        46.09233         0.12179
C         14.44544        46.88384         0.24171
C         15.88702        48.99129         0.39258
C         14.56177        48.25087         0.35978
C         15.83637        50.44442        -0.00438
C         18.41355        10.51280         1.08118
C         18.38314        11.87476         0.72219
C         17.16623        12.51661         0.41467
C         18.34122        14.59212        -0.39653
C         17.08634        13.90019         0.11444
C         18.33346        16.06005        -0.04576
C         17.04945        16.76800         0.17202
C         18.23709        18.97289        -0.63059
C         17.06068        18.25784         0.02385
C         18.01518        20.42280        -0.92132
C         16.95500        21.11060        -0.29996
C         18.34969        23.09122        -0.22405
C         17.04463        22.49660        -0.01275
C         18.69137        24.38158         0.29667
C         16.89093        25.43351         0.86365
C         18.33289        27.46341         0.39221
C         17.03327        26.77217         0.55019
C         18.30056        28.92699         0.10228
C         17.04896        29.64934         0.10124
C         18.26050        31.79090         0.04652
C         17.02616        31.07379         0.03893
C         18.27641        33.21130         0.14738
C         16.99635        33.95487         0.43489
C         18.27419        36.08484         0.06393
C         17.03743        35.40568         0.02932
C         18.28870        37.50356        -0.01579
C         17.05720        38.21358        -0.11352
C         18.27250        40.35746         0.03674
C         17.07890        39.64328         0.01337
C         18.28583        41.81802         0.07624
C         17.06933        42.55053         0.16158
C         18.28622        44.67564        -0.13409
C         17.06023        43.95650         0.04817
C         18.29842        46.08534        -0.34000
C         17.04858        46.81914        -0.03486
C         18.26522        48.97801        -0.58003
C         16.93746        48.25646        -0.46602
C         18.22354        50.34303        -0.66281
C         16.99058        51.09392        -0.37498
C         18.20445        53.25977        -0.45212
C         17.03442        52.53667        -0.32721
C         18.24425        54.66222        -0.19670
C         20.86030         6.34118         2.17793
C         20.83555         7.70415         1.91618
C         19.62527         8.45409         1.76009
C         20.87770        10.56964         1.40642
C         19.59655         9.81776         1.44046
C         20.91779        12.01831         1.07911
C         19.59079        12.77402         0.96851
C         20.82593        14.66364        -0.08645
C         19.66090        13.98387         0.06666
C         20.85010        16.11870        -0.42051
C         19.56038        16.86730        -0.40097
C         20.78155        18.84709        -1.31340
C         19.41324        18.13866        -1.24058
C         20.88320        20.12451        -1.80351
C         19.01025        21.20422        -1.51953
C         20.61915        23.13926        -1.43672
C         19.31443        22.48128        -1.06378
C         20.64545        24.61991        -1.16746
C         19.57279        25.23146        -0.32443
C         20.62236        27.46057        -0.87948
C         19.60516        26.67591        -0.02251
C         20.74272        28.91156        -0.41592
C         19.48751        29.62336        -0.15077
C         20.69105        31.79261        -0.19164
C         19.47818        31.06350        -0.11756
C         20.70093        33.17312         0.01190
C         19.49191        33.90634         0.15101
C         20.72418        36.07236         0.19636
C         19.52355        35.37092         0.17081
C         20.75730        37.50681         0.16775
C         19.52411        38.21700         0.05313
C         20.75529        40.33104        -0.00996
C         19.52602        39.63918         0.00374
C         20.74351        41.77229        -0.43444
C         19.48675        42.52117        -0.09486
C         20.71596        44.64570        -0.46422
C         19.49877        43.94029        -0.20794
C         20.71755        46.03593        -0.71963
C         19.48960        46.77298        -0.64334
C         20.68501        48.89820        -1.08730
C         19.51147        48.23469        -0.80132
C         20.76019        50.39188        -1.34872
C         19.41389        51.09207        -1.13328
C         20.74561        53.27857        -0.91713
C         19.42103        52.57301        -0.96547
C         20.70702        54.73432        -0.58289
C         19.42071        55.40547        -0.23508
C         20.63581        57.47371         0.29583
C         19.43010        56.77039         0.16111
C         20.70898        58.73185         0.97006
C         23.30902         3.48508         2.46806
C         22.10891         4.21939         2.51953
C         23.30451         6.17851         1.70496
C         22.08152         5.57391         2.15419
C         23.30571         7.52983         1.28514
C         22.12954         8.36126         1.61207
C         23.09297        10.27014         0.15421
C         22.14917         9.79443         1.23951
C         23.23166        11.79516         0.14318
C         22.16144        12.57638         0.45390
C         23.25441        14.55021        -0.69294
C         22.17728        14.08705         0.28651
C         23.27177        15.97554        -1.15375
C         22.05868        16.77656        -0.95075
C         23.27298        18.87000        -1.45570
C         22.04408        18.14012        -1.17768
C         23.27185        20.24742        -1.53408
C         22.02243        20.98846        -1.60682
C         23.18049        23.09944        -1.16628
C         21.93557        22.38353        -1.48738
C         23.16728        24.53351        -0.87677
C         21.94872        25.31342        -1.00022
C         23.21667        27.39571        -0.97172
C         21.93678        26.67997        -0.89897
C         23.21584        28.91696        -0.82017
C         21.91702        29.59333        -0.54667
C         23.16062        31.66069         0.12992
C         21.96499        31.09528        -0.60382
C         23.19324        33.14449         0.34013
C         21.99413        33.93058        -0.15251
C         23.28615        36.09850         0.10622
C         22.00223        35.32337         0.49902
C         23.28249        37.54225         0.62739
C         21.97654        38.22919         0.25839
C         23.25502        40.36075         0.24687
C         21.96562        39.62408         0.12956
C         23.25052        41.85177         0.13477
C         21.98305        42.56342        -0.13506
C         23.17856        44.59299        -0.85821
C         21.95843        43.91311        -0.37782
C         23.17321        46.05642        -1.00291
C         21.97129        46.72959        -0.96391
C         23.23380        48.92383        -1.01046
C         21.96603        48.17149        -1.38191
C         23.20387        50.28215        -0.73037
C         21.89027        51.00720        -0.46644
C         23.18078        53.17341        -0.32762
C         21.99757        52.52801        -0.60891
C         23.33500        54.71840        -0.34353
C         21.96805        55.40867        -0.20332
C         23.43572        57.47856         1.13187
C         21.84417        56.76293        -0.08801
C         22.98069        58.42004         2.03760
C         21.76152        59.18052         1.80495
C         22.35645        60.51460         3.77926
C         21.52843        60.27514         2.68486
C         24.49690         4.06905         2.05675
C         25.72182         6.10299         1.29121
C         24.52610         5.43771         1.65993
C         25.71864         7.45028         0.88178
C         24.46561         8.14628         0.81793
C         25.71892        10.16440        -0.11646
C         24.41113         9.48317         0.17345
C         25.73310        11.61911        -0.48702
C         24.39867        12.33951        -0.67305
C         25.73249        14.53766        -0.70002
C         24.54516        13.84429        -0.58614
C         25.72965        15.97320        -1.01433
C         24.57515        16.66382        -1.29040
C         25.78493        18.91030        -1.29012
C         24.56619        18.12330        -1.74436
C         25.77965        20.27755        -1.27595
C         24.54187        21.02553        -1.76133
C         25.60309        23.01406        -0.58251
C         24.40598        22.42723        -1.20164
C         25.52444        24.45734        -0.09506
C         24.33224        25.21259        -0.49545
C         25.60168        27.34615        -0.33040
C         24.42514        26.64902        -0.58507
C         25.62564        28.78091        -0.29807
C         24.47376        29.53672        -0.38945
C         25.71694        31.71074         0.15151
C         24.45708        30.92106         0.14442
C         25.73882        33.07520         0.15799
C         24.51623        33.85506         0.43382
C         25.73644        36.05890        -0.20644
C         24.60820        35.38124         0.52009
C         25.71267        37.46580        -0.32126
C         24.51219        38.23789         0.03765
C         25.66904        40.34479        -0.49541
C         24.50340        39.60954        -0.06392
C         25.70859        41.72671        -0.49562
C         24.55644        42.60157        -0.06873
C         25.72153        44.53342        -1.36915
C         24.43252        43.81310        -0.98394
C         25.65815        46.03024        -1.09852
C         24.44878        46.75291        -1.07078
C         25.74824        48.83648        -0.89079
C         24.49131        48.18068        -1.01941
C         25.76304        50.35709        -0.81946
C         24.42107        51.01185        -0.50393
C         25.62685        53.00378         0.32999
C         24.38815        52.36399        -0.17901
C         25.56984        54.38531         0.92851
C         24.35499        55.20265         0.74178
C         25.18013        56.66082         2.61233
C         24.32459        56.40024         1.45332
C         24.88667        57.75501         3.45032
C         23.76624        58.60052         3.23873
C         23.43866        59.67889         4.08735
C         26.94449         8.18179         0.70412
C         28.14868        10.32418         0.48771
C         26.97352         9.53456         0.36527
C         28.19727        11.70387         0.21034
C         27.00903        12.38895        -0.36265
C         28.18710        14.56310        -0.27865
C         26.99530        13.86906        -0.43613
C         28.26265        15.98078        -0.56275
C         27.04786        16.65497        -1.10740
C         28.27229        18.87717        -0.66495
C         27.06006        18.15283        -1.21846
C         28.34299        20.33878        -1.15196
C         27.00337        21.04512        -1.03234
C         28.16861        23.15195        -0.36723
C         26.94559        22.38957        -0.78291
C         27.94582        24.47519         0.30875
C         26.79697        25.17579         0.13853
C         28.10156        27.30357        -0.26890
C         26.82388        26.67552         0.26600
C         28.15634        28.67678        -0.28708
C         26.91781        29.44075         0.03760
C         28.29525        31.68377         0.03975
C         26.97777        30.92794         0.20291
C         28.10254        33.03263        -0.69198
C         27.03924        33.87059         0.11197
C         28.20083        35.94418        -0.93296
C         26.90405        35.24724        -0.56867
C         28.21368        37.44181        -0.64849
C         26.86993        38.12977        -0.81038
C         28.16452        40.31194        -1.19030
C         26.84190        39.57722        -0.98744
C         28.20785        41.67855        -0.49790
C         26.93557        42.45246        -0.68009
C         28.19171        44.55713        -0.94239
C         26.95434        43.82485        -0.82766
C         28.05866        45.87505        -1.34632
C         26.89480        46.70785        -1.12112
C         28.29954        48.80953        -0.58288
C         26.97754        48.12005        -0.91291
C         28.17492        50.16208         0.08394
C         26.81229        50.76355         0.20832
C         27.87846        52.69594         1.51952
C         26.69762        52.09879         0.84752
C         27.70285        53.93822         2.16698
C         26.54260        54.71933         2.00402
C         26.28735        55.81466         2.84112
C         29.35163        12.47067         0.42130
C         30.58017        14.59109         0.31303
C         29.39511        13.86580         0.14583
C         30.64824        15.98717         0.05107
C         29.45353        16.66281        -0.42086
C         30.76406        18.82125        -0.29955
C         29.58829        18.08820        -0.91556
C         30.73776        20.28616        -0.28345
C         29.44144        21.02074        -0.36476
C         30.42601        23.00634         0.76327
C         29.30801        22.28815         0.09206
C         30.44669        24.49872         0.59566
C         29.25654        25.02577        -0.18274
C         30.64282        27.25318        -0.25788
C         29.32025        26.50364        -0.48025
C         30.59559        28.72517        -0.17716
C         29.40351        29.39519        -0.36246
C         30.65939        31.59994        -0.54808
C         29.35457        30.86170        -0.72128
C         30.64001        33.02459        -0.67289
C         29.43698        33.76736        -0.78532
C         30.72030        35.90046        -1.02358
C         29.47550        35.18114        -0.85899
C         30.73776        37.41817        -0.85528
C         29.44177        38.16562        -1.15446
C         30.68670        40.31274        -1.31344
C         29.43187        39.52580        -1.24898
C         30.69760        41.74331        -0.92728
C         29.43827        42.49249        -0.75502
C         30.79826        44.53341        -0.53879
C         29.48668        43.86333        -0.82277
C         30.88313        45.97579        -0.35140
C         29.91049        46.86995        -0.84195
C         30.58904        48.65733         0.60248
C         29.58478        48.09713        -0.26061
C         30.39006        49.94733         1.19746
C         29.23019        50.67751         1.00128
C         29.04359        51.93838         1.64128
C         31.83409        16.70442         0.25928
C         33.08771        18.83711         0.58819
C         31.89270        18.13480         0.15361
C         33.12841        20.20952         0.71561
C         31.92416        20.97786         0.32061
C         32.95955        23.05186         1.34948
C         31.72084        22.28632         0.99931
C         32.88691        24.55471         1.35674
C         31.72800        25.24257         0.71894
C         33.04527        27.33883         0.53308
C         31.82238        26.55710         0.32965
C         33.01456        28.76653         0.29529
C         31.84117        29.45643        -0.03085
C         33.11447        31.58899        -0.32618
C         31.82086        30.88339        -0.25643
C         33.17559        33.04133        -0.58863
C         31.89692        33.81813        -0.40327
C         33.23843        35.83397        -1.30985
C         31.91977        35.20417        -0.99109
C         33.27738        37.33056        -1.47125
C         31.97835        38.09822        -1.43737
C         33.23157        40.33925        -1.03077
C         31.99678        39.58875        -1.38008
C         33.18633        41.61685        -0.53813
C         31.86866        42.26161        -0.14365
C         33.05626        44.33819         0.64272
C         31.88044        43.77246        -0.11416
C         33.08642        45.82855         0.72329
C         31.94722        46.57925         0.41728
C         31.78195        47.94269         0.82286
C         34.30155        20.99013         1.03277
C         35.47578        23.16273         1.23088
C         34.27481        22.37172         1.17222
C         35.47941        24.54463         1.31159
C         34.19777        25.29737         1.36469
C         35.44749        27.44382         1.39135
C         34.22300        26.70716         0.93473
C         35.32261        28.94095         1.36967
C         34.34370        29.47543         0.34042
C         35.44013        31.80656         0.74483
C         34.23805        30.97985         0.42550
C         35.53513        33.18863         0.21698
C         34.44185        33.78579        -0.33564
C         35.80406        35.85502        -0.87631
C         34.55538        35.01841        -1.19892
C         35.82515        37.36667        -1.01173
C         34.56517        38.12316        -1.36420
C         35.72183        40.27892        -0.53969
C         34.53114        39.61968        -1.15061
C         35.65214        41.64256        -0.23481
C         34.40670        42.35696        -0.20221
C         34.34606        43.66656         0.24390
C         36.69379        25.31489         1.24174
C         38.01904        27.36943         1.06262
C         36.75036        26.69486         1.34380
C         38.32431        28.65509         1.44602
C         36.47918        29.82161         1.62448
C         37.98135        31.79848         1.40248
C         36.66686        31.07841         1.15335
C         37.98884        33.18747         0.76200
C         36.83387        33.85899         0.29923
C         38.10419        35.95818         0.08050
C         36.91336        35.20843        -0.13350
C         38.09058        37.38963        -0.02258
C         36.95327        38.11188        -0.39519
C         36.87964        39.52061        -0.25648
C         39.34395        29.58350         0.99906
C         40.43759        31.73456         0.81320
C         39.22853        30.96422         1.02440
C         40.45681        33.09653         0.79698
C         39.23372        33.87214         0.70273
C         39.27464        35.25051         0.44863
O         23.56202        30.95285         1.32971
O         17.87726        16.31439         1.30505
O         19.78768        20.62742        -2.51459
O         15.72540        41.00977         1.54205
O         20.83611        54.27377        -1.99158
O         26.24498        50.87468         1.54817
O         23.27971        41.19317         1.46792
O         13.59311        44.50435        -0.96869
O         31.92113        38.85207        -2.67059
O         33.38868        25.13890         2.59338
O         18.12958        18.86999         0.82539
O         16.57616        46.46823         1.30552
O         27.27627        17.33161        -2.40964
O         23.76281        33.43253         1.62851
O         25.32051        23.35461         0.83900
O         30.85761        37.54510         0.56708
O         34.78385        39.03861        -2.47664
O         36.29252        36.51080        -2.09946
O         34.95206        28.21123         2.56748
O         33.33309        32.10015        -1.70098
O         26.58212        11.80814        -1.67175
O         21.08224        11.57070         2.47431
O         13.92125        29.14853        -1.40011
O         23.53978        43.78405        -2.12061
O         29.02460        24.07385        -1.37645
O         37.47587        29.23247         2.41289
O         17.98984        24.78194         1.43438
O         27.43331        34.13871         1.42746
O         23.00373        57.55166        -0.19291
O         26.20412        54.11796        -0.39713
O         34.35879        31.58001         1.74465
O         27.30241        35.44597        -1.97865
O         22.65105         9.42203         2.54704
O         19.10774        51.96421        -2.27735
O          9.49208        34.54589        -1.70408
O         30.02291        23.87288         1.85583
O         28.56727        50.05728        -1.32969
O         20.41495        16.96219         0.75762
O         19.41519        27.10085         1.33469
O         30.80165        41.39459        -2.33820
O         29.15297        46.48256        -1.94690
O         20.38876        24.13109        -2.51413
O         22.07034        48.10518        -2.91916
O         31.74851        20.99709        -1.13518
O         23.32752        28.27941        -2.13834
O         15.05244        27.36846         1.80417
O         25.02356         9.40000        -1.16083
O         33.22731        36.45999        -2.64612
O         32.16149        22.35132         2.37581
O         26.97266        30.04256         1.37493
O         30.19236        26.81124        -1.59857
O         27.30431        40.11545        -2.31287
O         22.92099        14.84535        -2.07857
O         14.03294        35.70020        -1.83224
O         20.08876        27.51869        -2.17231
O         29.02548        30.85059        -2.13269
H         29.67533        30.28144        -2.59538
O         24.68029        18.10358        -3.20834
H         25.55767        17.69251        -3.40712
O         22.13223        34.07250        -1.59820
H         22.11288        33.16057        -1.99932
O         26.13480        50.87233        -2.11578
H         27.06844        50.59933        -2.29107
O         23.99921        12.07675        -2.05250
H         24.82520        12.11418        -2.59047
O         28.09378        18.97329         0.76777
H         28.15024        18.07460         1.15625
O         28.70682        20.35750        -2.55454
H         28.88255        21.28642        -2.81635
O         31.89593        34.05679         1.05165
H         31.11026        34.60260         1.27778
O         28.30436        41.29823         0.91951
H         28.48529        42.10450         1.44681
O         35.01526        29.18780        -0.93242
H         34.50709        29.62176        -1.65230
O         16.41942        48.18640        -1.82643
H         16.45504        49.08658        -2.21467
O         12.19539        31.14916         1.86949
H         11.37740        30.75525         2.24346
O         22.41296         9.94640        -1.08385
H         22.99058        10.28346        -1.81151
O         31.59577        41.79671         1.21604
H         32.18724        42.31566         1.82204
O         28.84617        31.95888         1.32524
H         28.31246        32.71118         1.72437
O         25.02209        35.63465         1.89991
H         25.85657        35.09804         2.03620
O         23.88604        55.06345        -1.62611
H         23.92847        56.04209        -1.68048
O          7.74662        36.44865        -1.75784
H          8.08521        35.70444        -2.31132
O         21.17635        50.58021        -2.70723
H         20.56060        51.23327        -3.11897
O         27.53488        32.79626        -1.97649
H         27.56746        33.63740        -2.49029
O         32.86166        43.93299         2.10021
H         32.12434        44.47940         2.45110
O         21.50697        50.74210         0.91516
H         22.27104        50.95186         1.49271
O         21.98068        35.15502         1.92774
H         22.28467        36.00218         2.33566
O         15.31283        20.30409        -1.77051
H         14.86975        21.15219        -2.00029
O         34.78171        34.45321        -2.51013
H         34.74749        35.20559        -3.14624
O         24.72542        21.13011        -3.20784
H         24.69566        20.20906        -3.56204
O         18.30113        14.50596        -1.84525
H         18.33343        13.56173        -2.10442
O         24.91871        43.18946         1.21352
H         24.67605        42.52088         1.89751
O         29.88146        17.98369        -2.32555
H         29.69330        18.85850        -2.74414
O         20.96397        47.30809        -3.38522
H         21.39984        46.47464        -3.68905
O         28.30457        37.56068         0.80316
H         29.30582        37.58600         1.02293
O         20.74108        41.69114        -1.92018
H         19.94074        41.18899        -2.18587
O         16.30735        49.03176         1.78540
H         16.36994        48.09198         2.08903
O         23.33320        37.59931         2.06965
H         24.15567        37.13054         2.36111
O         19.01437        17.74028        -2.56430
H         19.09249        18.52256        -3.15283
O         19.33058        13.37008         2.27209
H         19.69620        12.74176         2.94102
O         23.36312        36.30532        -1.31946
H         23.02943        35.50513        -1.79537
O         22.57191        14.66307         1.56105
H         21.80332        14.61187         2.16991
O         16.88495        34.00006         1.90780
H         17.02990        33.09051         2.24585
O         13.11995        23.12028        -1.43071
H         12.28474        23.57490        -1.67538
O         38.09814        32.03459         2.83396
H         37.96518        31.16628         3.27649
O         26.81480        26.98391         1.69017
H         25.98601        26.63516         2.07969
O         25.88361        44.42773        -2.81030
H         24.98299        44.26802        -3.18373
O         14.62292        38.39903        -2.14481
H         14.50460        37.48081        -2.49342
O         22.19107        31.41631        -2.02756
H         21.67449        30.78042        -2.57052
H          4.97140        31.35582         1.05322
H          4.97840        33.81327         0.84651
H          7.38795        27.03166         0.79385
H          6.18053        29.18861         0.93008
H          6.15141        35.88762         0.41796
H          7.47889        38.10166         0.46254
H          9.88308        22.67365         0.93490
H          8.61855        24.84458         0.77381
H          8.74175        40.13947         0.69613
H          9.95210        42.25764         0.79422
H         12.39680        18.36722         0.52166
H         11.14170        20.50862         0.91467
H         11.12510        44.27874         1.29667
H         12.48859        46.79097         1.22061
H         14.95180        14.01998         0.37909
H         13.62488        16.21403         0.29374
H         13.65545        48.83872         0.57771
H         14.95088        51.03689         0.27503
H         17.47050         9.94445         1.03965
H         16.22950        11.94450         0.52182
H         16.11247        53.06286        -0.03569
H         17.30725        55.16509         0.08700
H         19.91959         5.81449         2.40121
H         18.67026         7.91076         1.83501
H         18.48650        57.23289         0.48685
H         19.75698        59.27987         1.06842
H         23.30015         2.42747         2.76738
H         21.18532         3.72869         2.85876
H         22.12884        61.35930         4.44508
H         20.64242        60.90723         2.52721
H         25.42488         3.48000         2.03285
H         26.67618         5.55778         1.34211
H         25.54528        57.95218         4.30886
H         24.04269        59.86926         4.98557
H         27.88855         7.67794         0.96271
H         29.06197         9.83759         0.86333
H         28.48876        54.29813         2.84777
H         26.96201        56.02008         3.68495
H         30.25942        11.98028         0.80380
H         31.48761        14.06823         0.65040
H         31.17374        50.34825         1.85695
H         29.87615        52.33831         2.23963
H         32.72773        16.16464         0.60673
H         33.96978        18.23528         0.85380
H         33.91170        46.29492         1.28290
H         32.58195        48.41585         1.41063
H         35.27222        20.47105         1.06108
H         36.43914        22.63417         1.15980
H         36.55248        42.14715         0.14933
H         35.28501        44.20742         0.43959
H         37.63552        24.75900         1.11222
H         38.74392        26.81313         0.44768
H         38.98588        37.93957         0.30567
H         37.74949        40.04350         0.17105
H         40.30058        29.16361         0.64368
H         41.38573        31.18014         0.73551
H         41.41530        33.62990         0.71412
H         40.23578        35.78343         0.49750
