         404
 CSIRO Nanostructure Databank - Neutral Graphene Oxide Data Set
C          1.60297         2.10225        -2.15147
C          1.52636         3.52854        -2.00742
C          2.70090         1.40508        -1.72856
C          2.48229         4.23518        -1.32536
C          1.29804         6.41483        -1.48711
C          1.27866         7.80202        -1.38770
C          2.47765         5.69133        -1.24377
C          2.44886         8.52590        -1.10224
C          1.23545        10.67545        -0.86515
C          1.20393        12.10852        -0.85818
C          2.41124         9.98429        -0.98737
C          2.35773        12.85251        -0.81277
C          1.31609        14.98734        -1.78720
C          1.40629        16.31510        -2.09761
C          2.31587        14.33547        -0.91478
C          2.59842        17.07495        -1.85396
C          2.74402        18.41511        -2.23250
C          3.78799         2.07345        -1.06355
C          3.54955         3.48862        -0.56159
C          4.96830         1.41697        -0.80673
C          4.83281         4.27440        -0.44727
C          3.67825         6.40358        -0.93652
C          3.67703         7.82415        -0.92217
C          4.87429         5.63513        -0.59564
C          4.89136         8.59490        -0.64558
C          3.71198        10.73616        -1.14135
C          3.64727        12.18983        -0.73193
C          4.89574         9.97610        -0.58144
C          4.81100        12.85663        -0.39419
C          3.58234        15.07980        -0.60435
C          3.78829        16.33591        -1.38819
C          4.78416        14.33462         0.00213
C          5.09989        17.06318        -1.28968
C          3.94885        19.11596        -2.08540
C          5.12469        18.51034        -1.57977
C          6.11511         2.07193        -0.22919
C          5.99660         3.51577         0.07259
C          7.30542         1.41472        -0.00365
C          7.27110         4.26593         0.39517
C          6.16675         6.35506        -0.47659
C          6.17302         7.87339        -0.53356
C          7.33687         5.70230         0.11165
C          7.36123         8.58178        -0.03217
C          6.08568        10.72159        -0.21252
C          6.02370        12.11890        -0.11502
C          7.31789         9.99506         0.07169
C          7.19841        12.88412         0.35409
C          6.12210        15.04998        -0.18328
C          6.20123        16.45835        -0.51304
C          7.26250        14.35004         0.13482
C          7.37116        17.18676        -0.37726
C          6.31773        19.20676        -1.36915
C          7.48249        18.55339        -0.86203
C          8.52487         2.10348         0.35978
C          8.53004         3.51881         0.44799
C          9.74477         1.41001         0.49439
C          9.73565         4.24054         0.63759
C          8.53493         6.40050         0.33834
C          8.54631         7.86335         0.26304
C          9.71291         5.67494         0.68967
C          9.73154         8.58673         0.54602
C          8.52537        10.68458         0.33923
C          8.50103        12.14949         0.53520
C          9.73640         9.98770         0.50962
C          9.77109        12.87606         0.22042
C          8.52667        15.04951         0.44108
C          8.55862        16.57270         0.22958
C          9.82565        14.34214         0.34796
C          9.85986        17.21294         0.06319
C          8.71490        19.20869        -0.80148
C          9.91953        18.54746        -0.37994
C         10.95363         2.09372         0.76548
C         10.93644         3.51329         0.86691
C         12.20171         1.37775         0.80007
C         12.15931         4.22840         1.24537
C         10.94363         6.39168         1.06375
C         10.96413         7.89740         0.99505
C         12.24017         5.68549         1.04804
C         12.27491         8.55970         0.78301
C         11.00875        10.72520         0.89579
C         11.05059        12.10849         0.26678
C         12.28101         9.95207         0.59909
C         12.31507        12.85560         0.33486
C         11.03448        14.99797         0.36760
C         11.07201        16.50001         0.61036
C         12.29696        14.26484         0.32056
C         12.36444        17.14931         0.19356
C         11.16668        19.23041        -0.37449
C         12.38177        18.55011        -0.09627
C         13.43417         2.00749         0.93921
C         13.46642         3.44786         1.29026
C         14.66444         1.31665         0.74475
C         14.70018         4.21377         1.10562
C         13.44834         6.35594         0.96062
C         13.47808         7.80606         0.77240
C         14.71180         5.61091         0.96680
C         14.70181         8.48332         0.51669
C         13.49455        10.64014         0.35692
C         13.52642        12.10821         0.28443
C         14.68432         9.87606         0.25581
C         14.73729        12.81033         0.16138
C         13.53729        14.96987         0.28767
C         13.56464        16.41200         0.19980
C         14.75583        14.23976         0.18750
C         14.81462        17.09324         0.09721
C         13.62487        19.22637        -0.14673
C         14.83857        18.52979         0.01859
C         15.90595         1.96030         0.81929
C         15.93580         3.41548         1.13313
C         17.12512         1.25977         0.65460
C         17.22876         4.15178         1.04234
C         15.94481         6.31856         0.74487
C         15.96597         7.73942         0.49054
C         17.20252         5.61928         0.79009
C         17.17158         8.38364         0.20978
C         15.91403        10.55280        -0.20692
C         15.96296        12.05982        -0.18718
C         17.21054         9.80380        -0.17909
C         17.27335        12.73210        -0.06395
C         15.99301        14.94610         0.04623
C         16.03711        16.35792         0.08413
C         17.23872        14.19655        -0.16665
C         17.29397        17.07131         0.20443
C         16.07995        19.21233         0.09767
C         17.29146        18.51416         0.26489
C         18.38254         1.90469         0.55785
C         18.38265         3.38821         0.47098
C         19.60269         1.21975         0.52108
C         19.65559         4.12608         0.30592
C         18.40721         6.26111         0.60517
C         18.47525         7.64116         0.02653
C         19.66909         5.51252         0.93211
C         19.70505         8.42512         0.47753
C         18.51945        10.57061        -0.06210
C         18.47832        12.05769         0.03679
C         19.73325         9.83304         0.39862
C         19.70710        12.77108         0.33771
C         18.55632        14.94567         0.06189
C         18.50238        16.38221         0.37103
C         19.71463        14.14545         0.45450
C         19.71442        17.06678         0.69225
C         18.51669        19.19839         0.47117
C         19.71180        18.50342         0.70928
C         20.88229         1.87427         0.50263
C         20.93217         3.35245         0.28667
C         22.07161         1.18762         0.63841
C         22.17392         4.11999         0.57340
C         20.94578         6.28441         0.71988
C         20.91906         7.71476         0.71157
C         22.15215         5.59466         0.76575
C         22.15510         8.41575         0.84587
C         20.93472        10.53986         0.62096
C         21.02257        12.01753         0.31914
C         22.15326         9.84313         0.83135
C         22.17418        12.68554         1.03492
C         20.83812        14.87105         1.09156
C         20.90355        16.35125         0.98572
C         22.07736        14.10037         1.43368
C         22.11076        17.04034         1.25246
C         20.93965        19.17741         0.99534
C         22.09935        18.47829         1.25233
C         23.35379         1.86930         0.93611
C         23.37803         3.38499         1.04569
C         24.64831         1.23020         0.71823
C         24.65350         4.11887         0.96758
C         23.39774         6.27804         0.89080
C         23.38861         7.69734         0.94425
C         24.64253         5.54670         0.97034
C         24.62795         8.41087         1.02725
C         23.39354        10.55482         0.96316
C         23.38598        11.98897         1.11263
C         24.62103         9.84309         1.04479
C         24.64169        12.67256         1.31352
C         23.33492        14.87500         1.69504
C         23.34904        16.33736         1.49140
C         24.64486        14.11899         1.62106
C         24.58314        17.01929         1.49451
C         23.33661        19.23335         1.67543
C         24.61618        18.46034         1.46902
C         25.84663         1.93447         0.81036
C         25.85383         3.39190         0.98270
C         27.08881         1.25845         0.60385
C         27.07981         4.10078         1.08245
C         25.87164         6.25236         1.08198
C         25.85755         7.70010         1.09793
C         27.09821         5.51272         1.14498
C         27.07438         8.43557         1.12409
C         25.85947        10.55701         1.06435
C         25.85545        12.00036         1.16725
C         27.07801         9.83792         1.04267
C         27.11318        12.73487         1.19380
C         25.87145        14.89010         1.38439
C         25.84165        16.30205         1.41317
C         27.09470        14.18474         1.24705
C         27.06482        17.02663         1.25587
C         25.80554        19.14138         1.36204
C         27.05847        18.45561         1.23748
C         28.32813         1.91109         0.71543
C         28.32792         3.32332         1.16262
C         29.55188         1.27828         0.44322
C         29.64602         4.08558         1.11215
C         28.36808         6.21845         1.14270
C         28.34666         7.69826         1.29380
C         29.56892         5.55251         1.02983
C         29.62845         8.46635         1.23464
C         28.33206        10.59740         0.67522
C         28.32849        12.05235         1.05906
C         29.63248         9.92173         1.00074
C         29.58268        12.72666         1.12109
C         28.30411        14.91396         1.20713
C         28.30945        16.33756         1.14178
C         29.55603        14.16989         1.36572
C         29.52225        17.06834         0.85688
C         28.26815        19.15758         1.12012
C         29.50404        18.51553         0.87839
C         30.79772         1.98443         0.37188
C         30.84027         3.38966         0.60798
C         31.98834         1.32390        -0.01941
C         32.04641         4.12067         0.41522
C         30.83148         6.26456         0.73379
C         30.86979         7.75711         0.81892
C         32.08571         5.51097         0.65135
C         32.13292         8.51294         0.87639
C         30.82672        10.60672         0.91123
C         30.81956        12.05895         0.94797
C         32.10756         9.89966         0.84116
C         32.06295        12.76714         0.82652
C         30.86465        14.94002         1.14546
C         30.72305        16.31457         0.65778
C         32.07290        14.17906         0.79247
C         31.85686        16.83447         0.02392
C         30.68794        19.35121         0.85951
C         31.86675        19.00905         0.20803
C         33.20543         2.02608        -0.21012
C         33.24318         3.43958         0.01003
C         34.39567         1.36085        -0.61866
C         34.43267         4.18011        -0.25855
C         33.36468         6.22007         0.66486
C         33.39728         7.78214         0.81431
C         34.52038         5.59057         0.02710
C         34.58437         8.50157         0.35317
C         33.32984        10.63353         0.62465
C         33.30240        12.05701         0.59344
C         34.54326         9.93077         0.33409
C         34.50033        12.77744         0.31836
C         33.25419        14.90703         0.49012
C         33.14833        16.29766         0.20843
C         34.49799        14.21030         0.29305
C         34.33618        17.16146         0.20983
C         33.20421        19.47143         0.31439
C         34.33012        18.65112         0.01727
C         35.56475         2.07761        -0.90914
C         35.54890         3.50062        -0.79445
C         36.80767         1.38904        -1.20889
C         36.69326         4.29325        -1.23542
C         35.68279         6.34998        -0.25187
C         35.73114         7.78641        -0.05639
C         36.80258         5.70712        -0.86857
C         36.93946         8.50220        -0.35688
C         35.73766        10.65388         0.03250
C         35.71824        12.08282         0.02493
C         36.95418         9.94988        -0.24246
C         36.89384        12.81582        -0.31905
C         35.67098        14.93035        -0.01459
C         35.67754        16.39912         0.10191
C         36.87768        14.25009        -0.34839
C         36.85405        17.13053        -0.37907
C         35.57442        19.26381        -0.19659
C         36.78853        18.56932        -0.46581
C         37.99327         2.05307        -1.38793
C         38.00433         3.52177        -1.51754
C         39.27681         1.38871        -1.56192
C         39.24462         4.27450        -1.41239
C         38.00129         6.39860        -1.13802
C         38.07478         7.79635        -0.81734
C         39.21080         5.65592        -1.45951
C         39.37527         8.47085        -0.83571
C         38.12797        10.69598        -0.50205
C         38.10575        12.11660        -0.60363
C         39.41145        10.00442        -0.65010
C         39.28017        12.84333        -0.99848
C         38.06160        14.98500        -0.66606
C         38.02082        16.42060        -0.67666
C         39.25888        14.27405        -1.05081
C         39.24663        17.19650        -0.93691
C         37.91433        19.28647        -0.92331
C         39.12891        18.63753        -1.22880
C         40.44452         2.06610        -1.55571
C         40.54182         3.52789        -1.19133
C         41.69747         4.24534        -1.84985
C         40.44719         6.37806        -1.85111
C         40.52804         7.86507        -1.56674
C         41.65903         5.56338        -2.10154
C         41.79294         8.62239        -1.52831
C         40.57485        10.72672        -1.16205
C         40.47959        12.13382        -1.36046
C         41.77992         9.98187        -1.38523
C         41.56851        12.86560        -1.90195
C         40.40768        14.97015        -1.53062
C         40.48849        16.44881        -1.44616
C         41.52233        14.24563        -1.99053
C         41.41814        17.22950        -2.26207
C         40.22477        19.31095        -1.78388
C         41.32497        18.60028        -2.32273
O         40.36617        16.89065        -0.04829
O         11.03976        10.90239         2.29579
O         31.73115        17.97624        -0.75749
O          2.47719        15.12685         0.34450
O          6.30504         3.86949         1.46690
O         15.75547        11.30672        -1.44662
O         21.05143        14.36892         2.47322
O         23.23748         2.59643         2.25395
O         18.78919         3.93184        -0.83958
O         37.13704         3.99798        -2.59742
O         10.79110         7.23027         2.28044
O         29.11405         3.54640         2.37599
O         33.63873         6.88766         1.94954
O         30.36366        14.66087         2.48556
O         35.16291        16.86502         1.39368
O         40.17290         7.37389        -2.90448
O         30.69545         7.12340        -0.51213
O         16.77153         3.70792         2.34208
O          8.38873        15.97587         1.57379
O         39.73840         9.06088         0.44003
O         18.05541        14.67698        -1.28767
O          7.73286        12.54864         1.69624
O          6.48579         7.07263        -1.73634
O         10.35893        12.30213        -1.01198
O         12.73723         3.77494         2.51944
O         24.01334        14.44485         2.91986
O         29.07115         8.09903         2.54150
O         18.04612        10.07074        -1.36848
O         21.82534         3.74449        -0.81506
O          4.78745        16.19880        -2.45939
O         21.41429        12.07243        -1.11361
H         20.69221        11.65379        -1.63170
O         40.80069         3.54773         0.25439
H         40.92404         4.48189         0.52531
O          3.98126        10.77804        -2.59661
H          4.09432         9.85146        -2.90057
O          4.61168        14.33447         1.44262
H          3.64710        14.45290         1.61721
O         23.39832        20.51607         1.04536
H         23.48748        20.38056         0.08003
O         18.64924         7.44609        -1.42084
H         18.52690         8.33639        -1.83549
O         19.64274         5.23148         2.37306
H         19.57854         6.08129         2.85750
O          3.04018         3.35090         0.80734
H          3.78763         3.06163         1.37434
O         11.00262        16.67492         2.07279
H         10.09499        16.38391         2.34207
O         28.29016        10.59630        -0.81205
H         29.09182        11.06496        -1.12949
H          0.79357         1.58457        -2.68485
H          0.70678         4.05100        -2.52170
H          2.79692         0.33057        -1.94446
H          0.36435         5.88359        -1.71528
H          0.33122         8.33100        -1.55561
H          0.27571        10.14465        -0.79633
H          0.22604        12.60959        -0.87211
H          0.44169        14.40484        -2.11101
H          0.58566        16.80326        -2.64490
H          1.86948        18.94590        -2.63713
H          5.06826         0.35704        -1.08946
H          3.98295        20.18092        -2.35731
H          7.36457         0.33296        -0.19777
H          6.37975        20.27242        -1.63557
H          9.75912         0.31556         0.38520
H          8.78346        20.25322        -1.13879
H         12.17751         0.29523         0.60338
H         11.19749        20.29525        -0.64623
H         14.63091         0.24373         0.50195
H         13.64050        20.31556        -0.29746
H         17.08954         0.16121         0.59141
H         16.08831        20.31224         0.07991
H         19.59208         0.12188         0.60444
H         18.51949        20.29839         0.48420
H         22.05927         0.08729         0.68581
H         20.95594        20.27671         1.03038
H         24.67125         0.16641         0.43710
H         23.24040        19.43354         2.78138
H         27.06783         0.18844         0.34733
H         25.79602        20.24151         1.36480
H         29.54629         0.21009         0.17830
H         28.24567        20.25674         1.16375
H         31.96282         0.23992        -0.20519
H         30.64583        20.28984         1.43290
H         34.39016         0.26561        -0.72079
H         33.39832        20.50908         0.62777
H         36.80167         0.28868        -1.18046
H         35.60052        20.36243        -0.26188
H         39.27182         0.30034        -1.72757
H         37.83549        20.37422        -1.06827
H         41.39085         1.52350        -1.70167
H         42.61162         3.66948        -2.06060
H         42.52110         6.06721        -2.56324
H         42.73521         8.10341        -1.75242
H         42.73087        10.52487        -1.48269
H         42.47340        12.34007        -2.23288
H         42.39829        14.78218        -2.37923
H         42.18263        16.71297        -2.85899
H         40.16853        20.39950        -1.92670
H         42.08137        19.16248        -2.88921
