         429
 CSIRO Nanostructure Databank - Neutral Graphene Oxide Data Set
C          1.24412         2.04083         0.99402
C          1.15967         3.40792         0.84398
C          2.44520         1.32442         0.79014
C          2.25132         4.17070         0.24379
C          1.18135         6.39377         1.01332
C          1.21771         7.72559         1.24176
C          2.25129         5.71300         0.19114
C          2.38715         8.52838         0.93080
C          1.17946        10.71543         1.05434
C          1.21324        12.08059         1.09032
C          2.36936         9.91030         0.89056
C          2.44368        12.85157         1.04390
C          1.25096        15.04448         1.14276
C          1.24788        16.39126         1.19172
C          2.47895        14.26656         1.16212
C          2.49719        17.19205         1.42262
C          2.51034        18.47168         0.63107
C          3.64509         1.98928         0.50062
C          3.59293         3.41753         0.12430
C          4.89549         1.33741         0.51845
C          4.85068         4.18120         0.14406
C          3.61883         6.31912         0.45256
C          3.68687         7.74663         0.94573
C          4.81178         5.62524         0.25963
C          4.89070         8.46999         0.41847
C          3.59869        10.68342         0.56242
C          3.66207        12.13382         0.89834
C          4.87188         9.93519         0.30884
C          4.89218        12.80183         0.96129
C          3.73204        14.96377         1.19347
C          3.77224        16.40339         1.21756
C          4.94641        14.21740         1.09936
C          4.98244        17.10760         1.13037
C          3.67267        19.06131         0.30234
C          4.97544        18.51109         0.67619
C          6.10204         2.04023         0.30120
C          6.06486         3.49013         0.18096
C          7.34572         1.37566         0.28601
C          7.30971         4.20469         0.08353
C          6.07994         6.33214         0.24132
C          6.07974         7.77664         0.25515
C          7.28881         5.63794         0.06911
C          7.33497         8.48906         0.13000
C          6.15996        10.62884         0.46673
C          6.15600        12.03243         0.94087
C          7.32771         9.91794         0.35173
C          7.45779        12.77101         1.01232
C          6.20712        14.92098         1.11472
C          6.20594        16.33734         1.21495
C          7.46133        14.24865         1.03835
C          7.46308        16.95011         1.39887
C          6.07066        19.29558         0.33683
C          7.42765        19.01408         0.72937
C          8.56789         2.07428         0.12702
C          8.53617         3.51481         0.00670
C          9.81280         1.41268         0.11434
C          9.75804         4.23481        -0.20477
C          8.52292         6.35017        -0.15030
C          8.52905         7.79280        -0.07866
C          9.71353         5.65323        -0.36784
C          9.80199         8.47424        -0.16605
C          8.62152        10.60898         0.55160
C          8.63904        12.10690         0.34403
C          9.89155         9.88510         0.24776
C          9.96988        12.71445         0.73710
C          8.69023        14.93516         0.97321
C          8.68559        16.34575         1.09975
C          9.99255        14.19616         0.96832
C          9.91696        17.18793         1.00826
C          8.63060        19.26813         0.11837
C          9.87399        18.59466         0.49718
C         11.03278         2.12572        -0.00546
C         11.00301         3.55121        -0.19157
C         12.28512         1.46993         0.04817
C         12.23907         4.28599        -0.28141
C         10.92619         6.36403        -0.92458
C         10.94676         7.83595        -0.58826
C         12.22275         5.67686        -0.54962
C         12.18121         8.56786        -0.72668
C         11.12886        10.66217        -0.02594
C         11.17675        12.00956         0.24230
C         12.29245         9.91889        -0.44759
C         12.48984        12.74408         0.39058
C         11.24064        14.92729         0.60972
C         11.23096        16.41450         0.73516
C         12.34494        14.24177         0.17592
C         12.36396        17.16494         0.21624
C         11.06677        19.23107         0.19637
C         12.33554        18.55845         0.11267
C         13.50243         2.18383        -0.00175
C         13.49148         3.62143        -0.12800
C         14.74576         1.51870         0.01060
C         14.71812         4.34099        -0.16132
C         13.42957         6.37282        -0.67803
C         13.37854         7.78504        -1.12376
C         14.67971         5.74028        -0.46009
C         14.64047         8.50845        -1.45486
C         13.66060        10.58170        -0.37322
C         13.62472        12.09993        -0.37469
C         14.58906        10.04829        -1.48440
C         14.75737        12.80475        -0.71981
C         13.52088        14.95549        -0.36813
C         13.53621        16.44266        -0.31236
C         14.80473        14.24975        -0.61127
C         14.86328        17.13199        -0.13065
C         13.53309        19.26025        -0.26751
C         14.76319        18.61253        -0.42352
C         15.98765         2.19088         0.05758
C         15.98645         3.65550         0.04901
C         17.15009         1.35987        -0.06471
C         17.16728         4.42988         0.04789
C         15.89399         6.50970        -0.64428
C         15.89865         7.79054        -1.14775
C         17.18027         5.93366        -0.11991
C         17.16105         8.46715        -1.49257
C         15.93972        10.72084        -1.34977
C         15.98018        12.08816        -1.11782
C         17.17367         9.99699        -1.64512
C         17.20288        12.80996        -1.30115
C         15.94485        14.98115        -0.93349
C         16.01418        16.41265        -0.80059
C         17.14160        14.27292        -1.45144
C         17.19571        17.12640        -1.00176
C         15.96950        19.28597        -0.66781
C         17.19271        18.57449        -0.82203
C         18.43896         1.74612         0.33636
C         18.42792         3.88578         0.40275
C         19.71418         1.30036        -0.02867
C         19.66448         4.34509        -0.09166
C         18.42266         6.46443        -0.81827
C         18.43565         7.74980        -1.28933
C         19.63924         5.62643        -0.81802
C         19.67873         8.50621        -1.60566
C         18.45837        10.71000        -1.49584
C         18.44053        12.13894        -1.45356
C         19.66548         9.98994        -1.48423
C         19.68867        12.86618        -1.54304
C         18.42275        15.03657        -1.70345
C         18.43954        16.48599        -1.38674
C         19.71878        14.30315        -1.66849
C         19.63127        17.17917        -1.42094
C         18.41452        19.24623        -0.78931
C         19.64762        18.56289        -0.97212
C         20.88916         2.12453         0.10101
C         20.86338         3.57387        -0.03656
C         22.13927         1.47511         0.13955
C         22.12455         4.27153        -0.19978
C         20.98867         6.32722        -1.03134
C         21.00186         7.79343        -1.34323
C         22.14547         5.66056        -0.44760
C         22.15946         8.60982        -0.95112
C         20.89444        10.69432        -1.37616
C         20.89666        12.12945        -1.45054
C         22.12104         9.98300        -1.10385
C         22.14034        12.84608        -1.51393
C         20.91947        15.00907        -1.81882
C         20.88885        16.55749        -2.02108
C         22.13561        14.23272        -1.84214
C         22.14130        17.30950        -1.53536
C         20.84223        19.20638        -0.64834
C         22.09796        18.55620        -0.82356
C         23.37680         2.17153         0.16841
C         23.37092         3.59358         0.01231
C         24.60814         1.48975         0.31076
C         24.61716         4.30580        -0.01526
C         23.35875         6.43086        -0.17764
C         23.37266         7.93380        -0.43095
C         24.63932         5.71890        -0.14805
C         24.67385         8.53762        -0.72130
C         23.37665        10.75518        -0.95683
C         23.38575        12.17337        -1.38469
C         24.66911         9.99221        -0.94075
C         24.61234        12.85656        -1.44613
C         23.41110        14.76559        -2.17234
C         23.40341        16.90305        -1.93656
C         24.63370        14.23198        -1.78402
C         24.63321        17.29979        -1.34280
C         23.30272        19.18259        -0.46188
C         24.56476        18.55775        -0.64960
C         25.84390         2.17906         0.30888
C         25.84996         3.60961         0.13743
C         27.07386         1.50316         0.47387
C         27.07679         4.33491         0.16465
C         25.86007         6.43552        -0.18829
C         25.87601         7.85931        -0.53317
C         27.07313         5.74568         0.00647
C         27.13402         8.51521        -0.78285
C         25.87718        10.61892        -1.54396
C         25.88164        12.10700        -1.63094
C         27.16738         9.80297        -1.59721
C         27.15050        12.83830        -1.48368
C         25.92465        15.05138        -1.91188
C         25.83450        16.49298        -1.31088
C         27.12831        14.24748        -1.40097
C         26.97006        17.08831        -0.76762
C         25.76823        19.17828        -0.25698
C         26.98385        18.48156        -0.37190
C         28.30738         2.19648         0.45827
C         28.31981         3.62417         0.31071
C         29.53883         1.49948         0.57514
C         29.56117         4.32235         0.23736
C         28.32673         6.54835         0.24605
C         28.34714         7.87657        -0.48951
C         29.59360         5.74568         0.07117
C         29.59390         8.50825        -0.69557
C         28.38030        10.65338        -1.29263
C         28.34548        12.06204        -1.22731
C         29.67584         9.87905        -1.34747
C         29.54444        12.78446        -0.89076
C         28.28020        14.91822        -0.94632
C         28.16745        16.28818        -0.33189
C         29.49157        14.20019        -0.71309
C         29.46529        17.05485        -0.28580
C         28.20771        19.14415        -0.09284
C         29.45815        18.47303        -0.11428
C         30.77109         2.16700         0.47728
C         30.78510         3.59571         0.27580
C         32.00564         1.47166         0.58512
C         32.02362         4.27679         0.12805
C         30.80327         6.41646        -0.08320
C         30.81600         7.84108        -0.38909
C         32.04942         5.69351        -0.04342
C         32.03795         8.54384        -0.39807
C         30.87518        10.64811        -0.87683
C         30.79178        12.08068        -0.72885
C         32.03732         9.95814        -0.55037
C         31.93906        12.77059        -0.35687
C         30.64668        14.91284        -0.26280
C         30.66265        16.33205        -0.12059
C         31.83901        14.14848         0.09623
C         31.88971        17.03252         0.19472
C         30.67897        19.16448         0.09569
C         31.90325        18.47153         0.26159
C         33.24162         2.12467         0.43311
C         33.25511         3.55329         0.15031
C         34.46183         1.43841         0.61618
C         34.46280         4.22438        -0.08766
C         33.28905         6.36938        -0.12570
C         33.30625         7.86301         0.06828
C         34.50334         5.64859        -0.18557
C         34.59495         8.51629        -0.39764
C         33.32491        10.69086        -0.24826
C         33.26328        12.15607        -0.72047
C         34.51332         9.95135        -0.90890
C         34.49315        12.90530        -0.20834
C         33.07465        14.86431         0.56383
C         33.07307        16.33261         0.48984
C         34.38495        14.16852         0.56018
C         34.25939        16.99096         0.86882
C         33.11868        19.13881         0.56354
C         34.29872        18.43267         0.90232
C         35.71976         2.04891         0.35478
C         35.70210         3.42716        -0.21053
C         36.91707         1.39148         0.55917
C         37.02414         4.18061        -0.30912
C         35.77011         6.35435        -0.27804
C         35.76395         7.80760        -0.42012
C         36.99301         5.66433        -0.28334
C         37.09047         8.46688        -0.80543
C         35.81566        10.73960        -0.69815
C         35.77342        12.14818        -0.15629
C         37.10086         9.98496        -0.58680
C         36.90105        12.67781         0.62155
C         35.47686        14.77575         1.12377
C         35.34971        16.21372         1.40413
C         36.74361        13.93351         1.46271
C         36.29599        16.94669         2.10712
C         35.51460        19.07870         1.26128
C         36.57078        18.33945         1.86227
C         38.23190         1.97237         0.09860
C         38.18964         3.47262         0.20894
C         39.42761         1.35292         0.78228
C         39.33653         4.25180         0.62271
C         38.23420         6.36031        -0.16589
C         38.28395         7.75727        -0.19164
C         39.51091         5.57106        -0.11527
C         39.48382         8.44392         0.11170
C         38.21745        10.64813         0.11289
C         38.13430        11.99670         0.56266
C         39.40767         9.87690         0.43302
C         39.37627        12.73447         0.78492
C         38.06418        14.69361         1.49756
C         38.19151        15.87834         2.21676
C         39.29624        14.13894         1.02881
C         39.23952        16.79763         2.08043
C         37.81463        18.89907         2.22723
C         39.08348        18.18016         2.69849
C         40.51685         2.03858         1.16071
C         40.60488         3.51508         1.05038
C         41.86537         4.19285         0.75918
C         40.74130         6.33536         0.31253
C         40.71838         7.75139         0.32509
C         41.91234         5.55032         0.52728
C         41.93782         8.53393         0.40215
C         40.73240        10.66287         0.67497
C         40.64130        12.13903         0.59729
C         41.95812         9.89473         0.43345
C         41.77913        12.96968         0.47276
C         40.46225        14.96200         0.97550
C         40.37737        16.37240         1.33895
C         41.68646        14.34714         0.61988
C         41.39178        17.30983         1.05850
C         40.21343        19.07200         2.27653
C         41.25691        18.65052         1.49275
O         23.20997         7.41111         0.93926
O         37.10228        16.26888         3.02879
O         13.82853         7.92866        -2.53247
O         13.22451        15.79529        -1.58176
O         10.10107        13.24007         2.09805
O         17.09612         9.10452        -2.81345
O         23.45435        15.92998        -2.95005
O         20.52104         8.05090        -2.70413
O         10.84914        16.90810         2.08303
O          9.41987        10.10561         1.64863
O         35.46622        13.10674        -1.30390
O          2.72182         3.64131        -1.04383
O         18.44462         2.80992         1.27965
O         32.16091        14.30876         1.57785
O         39.74798         4.23550         2.01992
O         20.34718         5.55342        -2.09057
O         24.14866        10.62928         0.29767
O          7.50038        18.24647         1.90896
O          4.04607        10.44454        -0.83278
O          6.94384        12.14306         2.21012
O         17.54429        14.68776        -2.81990
O         36.70898        10.68030        -1.85974
O         36.37890         3.56572        -1.50480
O         39.94059        10.14744         1.78062
O         25.66837        11.25045        -2.85451
O         39.77016         5.14459        -1.50101
H         39.62596         5.91907        -2.08580
O         38.38031         1.65447        -1.33015
H         37.66469         2.15202        -1.79801
O         15.12543        17.02190         1.30985
H         15.89791        17.58943         1.51683
O         17.30947         6.46435         1.25504
H         16.56898         6.10006         1.78583
O         20.79082        16.76746        -3.45487
H         21.62600        16.43139        -3.85076
O         26.17792        15.24628        -3.32762
H         25.36089        15.63553        -3.71379
O         39.07301        18.06002         4.15123
H         38.30990        17.48616         4.38215
O         28.28603         6.91645         1.67380
H         28.22869         6.08571         2.19189
O         10.81604         6.27167        -2.38419
H         10.88390         5.32485        -2.62930
O         12.84489        12.56922         1.81305
H         12.03358        12.80549         2.33056
O         29.93209         9.60353        -2.77360
H         29.06960         9.28932        -3.15212
O         33.30162         8.04940         1.55209
H         34.05126         7.53061         1.91641
O          2.47571        17.58338         2.84098
H          2.50553        16.75950         3.37181
O         37.27705         8.22195        -2.22993
H         37.02725         9.05317        -2.69883
O         27.87458        15.99977         1.10207
H         28.66755        15.55835         1.47778
O          1.94867         6.08339        -1.18958
H          2.33065         5.36921        -1.75420
O         33.56090        10.74144         1.17149
H         33.38552         9.84162         1.55355
O         33.26143        12.21873        -2.16033
H         34.17517        12.47230        -2.44082
O          8.46717        12.35689        -1.07852
H          9.22540        11.96798        -1.56414
O         27.28901         9.32494        -2.98502
H         26.88673        10.03493        -3.54545
O         36.49701        13.47725         2.83192
H         36.48197        14.28073         3.40011
O          3.95832         7.61567         2.41067
H          4.81195         7.13977         2.50795
O         14.02234        10.46776        -2.74017
H         13.85005         9.65318        -3.27026
O         34.25789         9.83665        -2.31989
H         35.11831         9.93497        -2.78600
O         14.23246        10.19114         0.90749
H         13.82760        10.78086         1.58906
H          0.36889         1.49384         1.37365
H          0.25941         3.92650         1.19989
H          2.46451         0.24237         0.98350
H          0.26821         5.83925         1.27170
H          0.34513         8.21367         1.70253
H          0.20870        10.21025         1.15918
H          0.26154        12.61339         1.22123
H          0.29463        14.51614         1.02600
H          0.29595        16.94169         1.14901
H          1.54919        18.94103         0.37409
H          4.93214         0.25558         0.71611
H          3.66965        20.01929        -0.24035
H          7.36674         0.28141         0.39967
H          5.87949        20.20428        -0.25693
H          9.84250         0.31889         0.22931
H          8.67592        19.97888        -0.72082
H         12.31301         0.37477         0.15029
H         11.03133        20.28059        -0.13346
H         14.74904         0.41834         0.01680
H         13.48174        20.35091        -0.40666
H         17.00673         0.36088        -0.50377
H         15.98398        20.38497        -0.72276
H         19.83656         0.30087        -0.47207
H         18.43469        20.32389        -0.56898
H         22.15763         0.37631         0.19378
H         20.81742        20.22784        -0.24213
H         24.60486         0.39605         0.42951
H         23.26783        20.17224         0.01602
H         27.07539         0.41053         0.60010
H         25.75455        20.19787         0.15415
H         29.52446         0.40863         0.71566
H         28.18217        20.21870         0.14183
H         31.99159         0.39061         0.78921
H         30.66190        20.25994         0.19661
H         34.44022         0.38161         0.92115
H         33.12340        20.23804         0.60954
H         36.90582         0.37092         0.97112
H         35.61691        20.16506         1.12661
H         39.41849         0.25625         0.87896
H         37.94308        19.96538         1.97496
H         41.38663         1.50581         1.57712
H         42.79346         3.60255         0.76569
H         42.89940         6.03610         0.48910
H         42.89560         8.00173         0.31027
H         42.91233        10.42944         0.32012
H         42.76367        12.51659         0.28966
H         42.60036        14.95284         0.54727
H         42.28071        17.01784         0.48363
H         40.18702        20.11605         2.62276
H         42.04552        19.36800         1.22112
