         324
 CSIRO Nanostructure Databank - Neutral Graphene Oxide Data Set
C          1.46450         1.90296         1.53557
C          1.47065         3.25151         1.74328
C          2.65050         1.20375         1.19190
C          2.76728         4.01056         1.74985
C          1.43724         6.17157         1.29999
C          1.40552         7.55610         1.15909
C          2.65867         5.48230         1.34737
C          2.58596         8.32456         1.13745
C          1.34316        10.47059         0.66381
C          1.34113        11.84417         0.43233
C          2.52560         9.79166         1.01976
C          2.52872        12.59542         0.47390
C          1.26212        14.81850         0.10771
C          1.24844        16.16657         0.16702
C          2.58176        14.07360         0.07362
C          2.47878        16.95087         0.23728
C          2.47006        18.34721        -0.03726
C          3.84219         1.87435         0.84420
C          3.87608         3.31291         0.98162
C          5.01822         1.08256         0.55675
C          5.00333         4.09855         0.65638
C          3.84750         6.22701         1.21638
C          3.82905         7.63524         1.16471
C          5.17453         5.49278         1.24134
C          5.10977         8.36958         1.42739
C          3.70506        10.55680         1.16558
C          3.72631        11.93438         0.82516
C          4.95052         9.88160         1.60611
C          5.02907        12.70198         0.63718
C          3.57923        14.84628         0.96086
C          3.68363        16.30441         0.54119
C          4.93813        14.16030         1.09321
C          4.91497        17.01586         0.49913
C          3.64940        19.05464        -0.09184
C          4.90435        18.40260         0.11213
C          6.03421         1.56326        -0.26649
C          5.92603         3.65462        -0.29360
C          7.41252         1.23549        -0.30792
C          7.16084         4.31873        -0.64243
C          6.28886         6.31369         0.60817
C          6.37708         7.67770         0.96397
C          7.33060         5.68591        -0.14120
C          7.54396         8.39869         0.54317
C          6.12658        10.76142         1.67995
C          6.22608        12.02956         1.24377
C          7.89280         9.66666         1.02505
C          7.55611        12.72261         1.18159
C          6.22196        14.94874         1.13617
C          6.18009        16.37155         0.69718
C          7.55405        14.22564         1.08585
C          7.35707        17.01659         0.29790
C          6.11604        19.08543        -0.11640
C          7.35153        18.40250        -0.10983
C          8.49723         2.05436        -0.72075
C          8.44680         3.49721        -1.08835
C          9.78702         1.52541        -0.51623
C          9.70433         4.28501        -1.21588
C          8.44419         6.37779        -0.63504
C          8.43383         7.83442        -0.49495
C          9.53002         5.73593        -1.30635
C          9.68889         8.62627        -0.90635
C          8.83450        10.52554         0.43510
C          8.71168        12.00194         0.52278
C          9.87905         9.95968        -0.34348
C          9.93657        12.77633         0.15871
C          8.71968        14.94283         0.53522
C          8.60951        16.29018         0.18196
C         10.07059        14.24234         0.61428
C          9.71401        16.93543        -0.46361
C          8.55473        19.05341        -0.50457
C          9.77574        18.35617        -0.71709
C         10.98731         2.26166        -0.66726
C         10.95689         3.64246        -1.12931
C         12.20087         1.67401        -0.26789
C         12.25474         4.27856        -1.32414
C         10.54359         6.56281        -1.85189
C         10.84405         7.89722        -1.45533
C         12.40528         5.51545        -1.99737
C         12.11169         8.53568        -1.54754
C         11.11946        10.59198        -0.50064
C         11.21366        11.99372         0.00145
C         12.21549         9.90263        -1.11339
C         12.49078        12.74071        -0.17090
C         11.09267        14.87387        -0.30037
C         10.74204        16.04920        -0.90440
C         12.36821        14.17482        -0.74969
C         12.49216        17.21219        -1.45224
C         10.96632        19.09702        -1.03681
C         12.30798        18.59590        -1.18729
C         13.43069         2.38244        -0.26558
C         13.45621         3.71260        -0.82462
C         14.61618         1.82076         0.22882
C         14.69521         4.42380        -0.92833
C         13.51998         6.34907        -1.89582
C         13.35692         7.83133        -2.06674
C         14.73755         5.76277        -1.43993
C         14.67365         8.55903        -2.06527
C         13.49712        10.58181        -1.07641
C         13.62848        11.85686        -0.56295
C         14.75592         9.86311        -1.35757
C         14.91960        12.40895        -0.31959
C         13.60790        15.10341        -0.68393
C         13.63777        16.49454        -1.08513
C         14.83351        14.61030        -0.30561
C         14.83339        17.26013        -0.93701
C         13.51511        19.34106        -1.01146
C         14.78295        18.69551        -0.99425
C         15.84639         2.53082         0.18292
C         15.89588         3.83564        -0.42961
C         17.01906         1.98443         0.72854
C         17.13529         4.52835        -0.52911
C         16.00356         6.42477        -1.60875
C         15.99203         7.80954        -2.15325
C         17.18462         5.80481        -1.18964
C         17.29589         8.58753        -2.19264
C         16.07989        10.62076        -1.35027
C         16.06836        12.02642        -0.95539
C         17.34253        10.03406        -1.85398
C         17.22398        12.91264        -1.37321
C         16.09210        15.16361        -0.70521
C         16.08058        16.57593        -0.87453
C         17.26633        14.38347        -0.90826
C         17.30352        17.27505        -0.97327
C         16.03930        19.38887        -0.92781
C         17.27286        18.71863        -0.92858
C         18.25177         2.68025         0.67669
C         18.32373         3.95327         0.01625
C         19.41636         2.11464         1.24628
C         19.58558         4.63702        -0.04414
C         18.51250         6.40901        -1.45021
C         18.57849         7.84969        -1.97237
C         19.71384         5.88530        -0.76178
C         19.81262         8.61313        -1.74207
C         18.52141        10.68700        -1.57554
C         18.51634        12.12598        -1.17266
C         19.81725         9.99911        -1.61854
C         19.80263        12.88357        -1.22522
C         18.46465        15.09646        -1.11297
C         18.50196        16.52654        -1.06386
C         19.70801        14.36597        -1.44959
C         19.75866        17.24097        -0.99480
C         18.53848        19.38533        -0.78862
C         19.73771        18.68215        -0.74396
C         20.65493         2.78294         1.19354
C         20.71493         4.07626         0.57761
C         21.85164         2.11237         1.58330
C         21.97712         4.82264         0.57960
C         20.94447         6.53530        -0.89545
C         21.07560         7.79508        -1.75395
C         22.12656         5.98967        -0.29830
C         22.28713         8.60721        -1.39053
C         21.06166        10.73408        -1.49104
C         21.09108        12.15801        -1.44399
C         22.30830         9.99142        -1.41410
C         22.30332        12.87348        -1.40238
C         21.00241        15.13563        -1.44156
C         20.96007        16.55582        -1.04475
C         22.29811        14.36644        -1.42970
C         22.15061        17.18805        -0.44475
C         20.98005        19.35009        -0.44121
C         22.15916        18.65439        -0.24040
C         23.12528         2.65219         1.35316
C         23.26649         4.07626         0.99620
C         24.28273         1.85887         1.36693
C         24.55373         4.58855         0.51319
C         23.41205         6.51557        -0.53461
C         23.51558         7.80955        -1.24286
C         24.60988         5.85776        -0.11068
C         24.83158         8.54394        -1.18125
C         23.57662        10.70842        -1.23885
C         23.55994        12.17996        -1.20347
C         24.77274        10.01517        -1.13795
C         24.72932        12.86664        -0.87448
C         23.54113        15.10433        -1.05608
C         23.43852        16.44246        -0.39316
C         24.80295        14.33677        -0.82646
C         24.66533        17.14662         0.06338
C         23.38238        19.26685         0.19130
C         24.56038        18.55868         0.41331
C         25.54887         2.38267         1.01187
C         25.71594         3.77033         0.65097
C         26.64423         1.50654         0.86538
C         27.01925         4.30012         0.40883
C         25.91695         6.47671        -0.31022
C         26.01551         7.82214        -0.65221
C         27.10701         5.73099         0.10071
C         27.31837         8.51231        -0.75782
C         26.04927        10.72972        -0.88295
C         25.90147        12.11382        -0.36476
C         27.35301        10.01428        -0.66502
C         27.11058        12.76780         0.21851
C         25.95995        15.04362        -0.17349
C         25.79672        16.42490         0.34264
C         27.18180        14.25981         0.21587
C         26.70735        16.98250         1.41669
C         25.76106        19.21063         0.88211
C         26.86694        18.48909         1.28820
C         27.87693         1.97731         0.40447
C         28.12221         3.39110         0.30485
C         28.86450         1.02829        -0.04139
C         29.45864         3.77323        -0.10406
C         28.28921         6.44039         0.23048
C         28.55717         7.76371        -0.33727
C         29.97189         5.07214         0.08999
C         29.77665         8.51307         0.10383
C         28.44977        10.65371         0.14883
C         28.37344        12.00659         0.47182
C         29.63369         9.88756         0.49333
C         29.44736        12.68635         1.16922
C         28.26535        14.90078         0.99953
C         28.02763        16.23324         1.63443
C         29.40302        14.08041         1.48191
C         29.26124        16.95741         2.07883
C         28.08897        19.12322         1.68953
C         29.23982        18.43821         2.04411
C         29.99109         1.43711        -0.69386
C         30.31808         2.83340        -0.75289
C         31.49914         3.28912        -1.38183
C         31.09170         5.54140        -0.60121
C         31.05235         7.91481         0.19195
C         31.85313         4.63369        -1.36722
C         32.10167         8.58462         0.86357
C         30.71410        10.55495         1.14857
C         30.61781        11.95234         1.50642
C         31.91649         9.84502         1.38633
C         31.69106        12.63268         2.14168
C         30.52916        14.76435         1.98494
C         30.55501        16.23035         2.06677
C         31.66221        13.99548         2.35404
C         31.70585        16.96687         2.21004
C         30.49443        19.10491         2.25326
C         31.66595        18.39548         2.32853
O         18.73805         6.71091        -2.87662
O         27.06678        10.65976        -1.94732
O          8.48715         8.56124        -1.76182
O         12.06977        12.33292         1.15982
O          7.49011         4.02176        -2.03695
O          8.94111        12.55414        -0.85467
O         13.88574         8.48002        -3.27977
O         28.21525         7.91096        -1.75596
O         24.37621         7.89649        -2.42659
O         22.57570         4.98997         1.90662
O         22.52383        16.39493         0.77429
O         31.55105         6.83685        -0.54545
O         19.20628        12.46203         0.06262
O         26.03257        12.26697         1.10852
O         11.36205         5.96555        -2.81218
O         28.36247        16.27306         3.05477
O         25.86490        14.95005        -1.64689
O          5.58900         2.61024        -1.13266
O         29.32516         5.91729         1.02141
O          7.26974        10.13617         2.19232
O         15.63461         9.75522        -0.19180
O         14.90744        13.50602         0.52859
O          4.94879         8.96552         2.76225
O          7.89697        13.51011         2.36139
O         20.28810        14.83508        -2.69892
O          5.51807        14.55400         2.36922
O         23.16719        14.99792        -2.45830
O         28.31923        14.87488        -0.47812
O         11.45273        16.49170        -2.04062
O         16.64485         8.13279        -3.42112
O         10.50756        14.29328         1.98770
H          9.75094        13.98818         2.54511
O          5.29966        12.73493        -0.79295
H          4.55520        13.21853        -1.23741
O         17.08862        13.01056        -2.82597
H         16.30242        13.55727        -3.03570
O          3.06239        14.13948        -1.30604
H          2.36049        13.78523        -1.89135
O         12.24133        13.88147        -2.17384
H         11.97709        14.72259        -2.61850
O         21.31959         7.34699        -3.12345
H         20.47724         6.93744        -3.44147
O         25.92690        16.77541         2.63523
H         26.56670        16.79177         3.38562
O          5.56079         5.31849         2.64920
H          5.61381         6.21141         3.05563
O          3.18457         4.02309         3.15709
H          4.09394         4.42048         3.19149
O          2.97887        14.82596         2.27820
H          3.70241        15.01589         2.91942
H          0.53023         1.33384         1.64828
H          0.55927         3.75304         2.09632
H          2.62397         0.10662         1.13274
H          0.48709         5.62765         1.38534
H          0.42740         8.05482         1.13340
H          0.40034         9.91984         0.54635
H          0.38980        12.32592         0.16778
H          0.31514        14.26979         0.00040
H          0.29307        16.71137         0.11840
H          1.51201        18.84854        -0.23709
H          5.11176         0.10212         1.04557
H          3.64326        20.12561        -0.34107
H          7.69605         0.28284         0.16653
H          6.08673        20.14730        -0.40359
H          9.86934         0.48455        -0.16833
H          8.51364        20.13369        -0.71363
H         12.18606         0.64056         0.10950
H         10.85720        20.19379        -0.99443
H         14.59951         0.80824         0.65833
H         13.46492        20.43301        -0.88671
H         16.98074         0.99934         1.21651
H         16.03297        20.48893        -0.88630
H         19.35666         1.12117         1.71426
H         18.55033        20.47675        -0.64592
H         21.77437         1.06769         1.92053
H         20.96211        20.44081        -0.29295
H         24.19879         0.78658         1.59835
H         23.36868        20.34780         0.40073
H         26.49422         0.42742         1.01588
H         25.78434        20.31130         0.91381
H         28.63351        -0.04228         0.05694
H         28.13330        20.22259         1.63221
H         30.68903         0.70767        -1.12885
H         32.13727         2.56363        -1.90523
H         32.75003         4.98635        -1.89184
H         33.07376         8.08254         0.95313
H         32.75000        10.31880         1.91852
H         32.59012        12.08308         2.44759
H         32.53242        14.48679         2.81022
H         32.68707        16.47264         2.23467
H         30.50658        20.20310         2.30758
H         32.61644        18.93095         2.46072
