         651
 CSIRO Nanostructure Databank - Neutral Graphene Oxide Data Set
C          5.81316        31.61275         0.03677
C          5.82833        32.96008         0.22360
C          8.30437        27.45217        -0.78399
C          8.18064        28.87767        -1.28966
C          6.97324        29.59297        -0.74607
C          8.32339        31.49714         0.06089
C          7.01998        30.85228        -0.24418
C          8.32541        32.97137         0.39339
C          7.05787        33.72876         0.22464
C          8.27526        35.89115         0.01782
C          7.06203        35.08448         0.01573
C          8.15371        37.31658        -0.18778
C         10.86659        23.26694        -0.14030
C         10.82142        24.66348        -0.53744
C          9.60418        25.38532        -0.46250
C         10.67641        27.39586        -1.49610
C          9.47571        26.73254        -0.90925
C         10.71702        28.90293        -1.46635
C          9.49103        29.61627        -1.02278
C         10.91880        31.45560        -0.09483
C          9.56080        30.83672        -0.43395
C         10.89624        33.00294        -0.00226
C          9.60699        33.75092         0.31166
C         10.78544        35.93153         0.01728
C          9.49916        35.21571         0.13257
C         10.94932        37.22516         0.66694
C          9.10767        38.24955         0.30125
C         10.66671        40.22440         0.48027
C          9.50656        39.51994        -0.10513
C         10.83953        41.66891         0.26871
C         13.07127        18.83043         0.05280
C         13.14266        20.33471        -0.00250
C         12.03182        21.10062         0.13775
C         13.27182        23.11922        -0.62664
C         12.01437        22.51259        -0.21649
C         13.26083        24.49672        -1.25503
C         11.98717        25.26856        -1.03787
C         13.28526        27.41586        -1.70150
C         11.96597        26.63227        -1.55898
C         13.26086        28.89998        -1.66232
C         12.02091        29.60506        -1.41338
C         13.18501        31.74143        -1.34229
C         12.02652        30.92413        -0.98754
C         13.21631        33.16524        -0.95150
C         12.08234        33.76106        -0.49250
C         13.34050        35.96445        -0.21620
C         12.05859        35.23781        -0.38627
C         13.27912        37.37500         0.05552
C         12.07586        38.01616         0.48225
C         13.30098        40.24972         0.96787
C         12.00057        39.45552         0.82229
C         13.31665        41.67128         0.39625
C         12.05343        42.38259         0.30655
C         12.99210        44.72926         0.14449
C         11.95220        43.82703         0.39874
C         13.24572        46.00732         0.68197
C         15.74870        14.68143         0.06125
C         15.65596        16.02239         0.38864
C         14.43938        16.77782         0.29447
C         15.61221        18.94320         0.41731
C         14.40635        18.15881         0.30936
C         15.66621        20.28547         0.04177
C         14.42338        20.90954        -0.55664
C         15.75329        23.06711        -0.80285
C         14.43922        22.41119        -0.56467
C         15.76310        24.54667        -1.00411
C         14.47089        25.31950        -0.75550
C         15.70020        27.46736        -1.13124
C         14.53799        26.75024        -1.27583
C         15.74024        28.89651        -1.39016
C         14.48700        29.57633        -1.62187
C         15.79686        31.78402        -1.96122
C         14.47381        31.03725        -1.78737
C         15.74445        33.27136        -1.55430
C         14.45903        33.95839        -1.15090
C         15.80905        36.08242        -0.66188
C         14.52417        35.29686        -0.51697
C         15.71719        37.35839         0.17079
C         14.50754        38.10682         0.18573
C         15.77368        40.13671         0.67860
C         14.52460        39.46137         0.57253
C         15.80162        41.55210         0.62022
C         14.60063        42.27820         0.37940
C         15.85584        44.45017         0.64962
C         14.81316        43.68013         0.10200
C         15.79052        45.83460         0.80541
C         14.54507        46.59396         0.80490
C         15.82877        48.69080         1.27410
C         14.61269        47.97615         1.10781
C         15.81159        50.12563         1.31699
C         18.40528        10.52179        -0.51560
C         18.33851        11.93003        -0.23025
C         17.09021        12.60943        -0.20363
C         18.20733        14.69573         0.41862
C         17.00303        13.97488         0.09740
C         18.16494        16.07343         0.73932
C         16.85898        16.73580         0.84875
C         18.12545        18.97216         0.77324
C         16.83820        18.26418         0.87401
C         18.10869        20.32136         0.44980
C         16.90291        21.01319         0.07617
C         18.11037        23.16955         0.05458
C         16.98456        22.39494        -0.29510
C         18.09898        24.63106         0.03846
C         17.07071        25.31574        -0.86177
C         18.21966        27.43312        -0.76307
C         16.87817        26.79522        -0.44244
C         18.22970        28.87875        -1.16163
C         16.94750        29.62202        -1.29167
C         18.21345        31.73253        -1.43892
C         16.99544        31.03834        -1.41590
C         18.24224        33.16071        -1.47914
C         17.05322        33.92793        -1.25839
C         18.39505        35.81061        -0.52217
C         17.10401        35.22862        -0.70084
C         18.64350        36.91606         0.32366
C         16.79808        37.99040         0.78454
C         18.30688        40.02658         0.60937
C         16.96999        39.38312         0.80005
C         18.35578        41.50751         0.81835
C         17.09634        42.29521         0.52846
C         18.33804        44.40014         1.14612
C         17.02013        43.65942         1.31438
C         18.31229        45.76723         1.25909
C         16.98690        46.47025         1.50910
C         18.28914        48.66150         1.34737
C         17.05274        47.96719         1.33412
C         18.25808        50.13697         1.51048
C         16.97857        50.88266         1.41132
C         18.17277        53.07653         1.40424
C         16.99176        52.30566         1.49156
C         18.22515        54.48419         1.47159
C         21.06142         6.30634        -0.87581
C         20.62329         7.60373        -1.11320
C         19.50899         8.35946        -0.66643
C         20.84329        10.49514         0.01509
C         19.58793         9.78407        -0.53352
C         20.86524        12.01042        -0.19832
C         19.52454        12.65509         0.03802
C         20.64931        14.72783         0.78859
C         19.46499        14.02104         0.38238
C         20.57450        16.08380         1.10487
C         19.34831        16.79612         0.99766
C         20.58984        18.92740         0.97373
C         19.36605        18.25783         0.99824
C         20.67577        20.35179         0.64737
C         19.38736        21.05911         0.37190
C         20.64879        23.28995         0.75828
C         19.30461        22.52851         0.60507
C         20.68708        24.70348         0.37533
C         19.43038        25.42838         0.23321
C         20.69326        27.47871        -0.42105
C         19.47794        26.81395        -0.27731
C         20.71001        28.88679        -0.83455
C         19.51820        29.57269        -1.05372
C         20.79691        31.65415        -1.72121
C         19.48513        30.96451        -1.52835
C         20.80886        33.14878        -1.90641
C         19.49244        33.86951        -1.76172
C         20.85716        35.99601        -1.02136
C         19.55475        35.36265        -1.29456
C         20.88476        37.22856        -0.40431
C         19.70190        37.79427         0.17003
C         20.89377        40.00705         0.49588
C         19.60211        39.27029         0.37899
C         20.84272        41.44812         0.84366
C         19.54303        42.18705         0.82858
C         20.74550        44.35090         0.70622
C         19.56884        43.65622         0.91914
C         20.87158        45.77920         1.02880
C         19.56917        46.53223         1.37807
C         20.79467        48.75075         1.18674
C         19.52464        48.00622         1.30446
C         20.77908        50.20940         0.93932
C         19.53086        50.90749         1.28168
C         20.69714        53.09557         0.84953
C         19.40447        52.35687         0.98809
C         20.72090        54.48260         1.35857
C         19.44147        55.23057         1.39621
C         20.76167        57.33706         1.31576
C         19.51479        56.62236         1.39997
C         20.74350        58.76030         1.11356
C         23.68525         3.70461        -0.88388
C         22.48836         4.38971        -1.05319
C         23.66029         6.56083        -0.90275
C         22.41931         5.80515        -1.02498
C         23.64642         8.01079        -0.87754
C         22.46002         8.78672        -1.00149
C         23.32923        10.56810         0.38092
C         22.23513         9.96093        -0.29585
C         23.18468        11.92081         0.87306
C         21.98330        12.65139         0.61664
C         23.04325        14.69713         1.48845
C         21.89641        14.00317         0.95808
C         23.04115        16.09437         1.68764
C         21.73497        16.82399         1.71220
C         23.17692        18.93931         1.28810
C         21.86474        18.20601         1.13346
C         23.14692        20.41673         1.19215
C         21.91893        21.12466         0.93294
C         23.19430        23.20292         0.44968
C         21.89987        22.50643         0.78199
C         23.15248        24.71765         0.49560
C         21.92038        25.39289         0.21508
C         23.16828        27.51201        -0.03673
C         21.93671        26.80285        -0.07775
C         23.21159        28.90088        -0.51848
C         21.98587        29.58520        -0.92931
C         23.25507        31.67497        -1.34957
C         22.02300        30.94257        -1.29363
C         23.32638        33.06873        -1.49472
C         22.11085        33.88943        -1.79546
C         23.34670        35.98194        -0.94653
C         22.12309        35.43536        -1.65221
C         23.38466        37.26629        -0.44800
C         22.13678        37.88005         0.10368
C         23.36255        40.09226         0.17854
C         22.08415        39.39068         0.18543
C         23.37677        41.53941         0.27031
C         22.11998        42.22317         0.65848
C         23.19854        44.43515        -0.06298
C         21.97531        43.65710         0.27291
C         23.15168        45.92186        -0.00184
C         22.05611        46.53720         0.53576
C         23.10881        48.78607         0.02808
C         22.05207        48.00611         0.78186
C         23.19762        50.24490         0.39074
C         21.93871        50.93070         0.64026
C         23.14747        53.09350         0.47815
C         21.96677        52.36155         0.72044
C         23.20461        54.48508         0.68837
C         22.06080        55.20352         1.30373
C         23.26996        57.40006         1.19104
C         22.00125        56.66935         1.30640
C         23.25765        58.92257         1.24040
C         21.89829        59.51810         0.93458
C         23.04202        61.61831         0.37243
C         21.85902        60.89372         0.62937
C         24.81751         4.41866        -0.50139
C         25.97663         6.37030         0.28379
C         24.83451         5.83180        -0.45546
C         26.46941         7.65347         0.22937
C         24.75138         8.80164        -0.47356
C         25.71848        10.43062         1.17877
C         24.61880         9.97020         0.28754
C         25.51362        11.79798         1.79568
C         24.29473        12.56725         1.45542
C         25.27260        14.58908         2.48800
C         24.22840        13.94746         1.75129
C         25.20132        15.97726         2.69836
C         24.21117        16.80755         2.09667
C         25.57658        18.97839         1.98116
C         24.35557        18.24723         1.91191
C         25.57152        20.39644         1.63527
C         24.35869        21.11687         1.34021
C         25.54468        23.27296         1.29408
C         24.38376        22.54860         1.12313
C         25.50433        24.78957         1.35318
C         24.33316        25.45373         0.65482
C         25.61708        27.63636         0.63131
C         24.34902        26.86036         0.42396
C         25.64084        29.09908         0.14416
C         24.43291        29.52626        -0.67445
C         25.81878        31.60629        -1.36314
C         24.48661        30.87130        -1.28601
C         25.79304        33.07670        -1.26793
C         24.57459        33.75200        -1.33202
C         25.85908        35.87101        -0.54842
C         24.54054        35.15108        -0.85472
C         25.82880        37.31927        -0.37725
C         24.62304        37.97497        -0.18184
C         25.83807        40.19143         0.37673
C         24.56987        39.40481         0.05909
C         25.79539        41.61038        -0.13737
C         24.53306        42.27622         0.03341
C         25.59298        44.45663        -0.70236
C         24.55399        43.78083         0.19796
C         25.68707        45.94817        -0.40683
C         24.36478        46.69371        -0.54390
C         25.63852        48.85887        -0.19738
C         24.43981        48.03787         0.18899
C         25.60265        50.22583        -0.15721
C         24.34985        50.93274         0.09814
C         25.55452        53.13996        -0.57898
C         24.22036        52.37738        -0.31011
C         25.55350        54.56251        -0.06564
C         24.39350        55.20090         0.35482
C         25.51128        57.39737        -0.14954
C         24.46929        56.65750         0.66673
C         25.50915        58.88794         0.06058
C         24.39193        59.57116         0.45972
C         24.27447        60.99366         0.27391
C         27.31302         8.42985         1.09688
C         28.10959        10.58766         1.89437
C         27.08190         9.80107         1.31021
C         28.00124        11.94799         2.27622
C         26.67649        12.54720         2.33238
C         28.34751        14.97705         2.93422
C         26.42114        13.79745         2.85306
C         28.29011        16.34617         2.69109
C         27.10662        17.12496         2.85043
C         28.09947        19.06470         1.81833
C         26.89725        18.38281         2.23782
C         28.04846        20.45566         1.52782
C         26.78371        21.12921         1.54573
C         28.00771        23.27000         1.48254
C         26.78321        22.55940         1.46608
C         27.93393        24.71573         1.61796
C         26.86392        25.43750         1.14589
C         28.22287        27.53303         0.47011
C         26.92390        26.91852         0.95227
C         28.16057        28.85116        -0.13767
C         26.99031        29.55401        -0.40755
C         28.21549        31.66422        -0.89731
C         27.03519        30.91024        -0.90658
C         28.24945        33.06204        -1.09234
C         27.03926        33.79717        -1.11150
C         28.33041        35.94099        -0.95949
C         27.09738        35.19833        -0.93793
C         28.34340        37.33824        -0.73658
C         27.12180        38.00374        -0.25419
C         28.33233        40.22021        -0.39920
C         27.13794        39.46494         0.04487
C         28.24152        41.60170        -0.55822
C         26.97187        42.28393        -0.46290
C         28.21380        44.53026        -0.63524
C         26.93541        43.74063        -0.74571
C         28.15958        45.93780        -0.07260
C         26.85162        46.64271        -0.34239
C         28.14198        48.86817        -0.21743
C         26.88331        48.13664        -0.63480
C         28.10324        50.25945        -0.10978
C         26.84657        50.99182        -0.21594
C         28.04160        53.13121        -0.10398
C         26.81533        52.37494        -0.21351
C         28.03408        54.52139        -0.09575
C         26.81614        55.29151        -0.09690
C         26.82509        56.67369        -0.03704
C         29.20827        12.71109         2.31213
C         30.47787        14.75588         1.73950
C         29.35911        14.12007         2.36727
C         30.56702        16.15006         1.59536
C         29.57216        17.02205         2.32255
C         30.48381        18.98025         1.19376
C         29.35461        18.37109         1.71343
C         30.49717        20.43839         1.10298
C         29.23800        21.18553         1.25025
C         30.42142        23.28586         0.65553
C         29.24718        22.59736         1.20430
C         30.59600        24.65646         0.58357
C         29.93885        25.77098         1.37259
C         30.76198        27.47859        -0.04983
C         29.45112        26.89631         0.49710
C         30.68859        28.96130         0.20625
C         29.48056        29.54946        -0.48066
C         30.50115        31.81254         0.23503
C         29.34370        31.01728        -0.20434
C         30.70956        33.13497        -0.38521
C         29.53874        33.78335        -1.05750
C         30.79234        35.94483        -0.89288
C         29.57977        35.26220        -1.07091
C         30.79768        37.35209        -0.71933
C         29.56057        38.05697        -0.66584
C         30.80166        40.17826        -0.61200
C         29.56301        39.49676        -0.55936
C         30.82498        41.63647        -0.78703
C         29.47307        42.37771        -0.80737
C         30.72715        44.53913        -0.52691
C         29.46741        43.79570        -0.47539
C         30.70219        46.04283        -0.45959
C         29.40910        46.75783        -0.32801
C         30.65694        48.85396        -0.02089
C         29.39239        48.13577        -0.18390
C         30.64324        50.33758         0.28015
C         29.31750        51.02894         0.05250
C         29.27613        52.39935         0.03520
C         31.60985        16.79997         0.91024
C         32.71126        18.85923         0.09456
C         31.64360        18.21718         0.76485
C         32.77324        20.25633        -0.12911
C         31.68233        21.08717         0.44440
C         32.76104        23.12798        -0.55565
C         31.47522        22.47878        -0.01808
C         32.92057        24.54193        -0.26674
C         31.83363        25.24765         0.16262
C         33.24792        27.23642         0.66212
C         31.85386        26.65012         0.70656
C         33.46921        28.59079         1.06479
C         31.52717        29.72312         0.99353
C         32.82934        31.88956         1.03693
C         31.67216        31.14373         0.80608
C         33.08878        33.16558         0.45591
C         31.84324        33.98474         0.15337
C         33.27163        35.92496        -0.25844
C         32.09213        35.16419        -0.79256
C         33.24499        37.34965        -0.29244
C         32.03501        38.05827        -0.50659
C         33.27438        40.21423        -0.37383
C         32.03272        39.48578        -0.49584
C         33.25415        41.66722        -0.27135
C         32.06158        42.35625        -0.42495
C         33.21871        44.59563         0.13084
C         31.97479        43.80614        -0.13281
C         33.14679        46.07989         0.01713
C         31.96311        46.75639        -0.11448
C         31.85686        48.19466         0.01558
C         33.87381        20.89831        -0.72150
C         35.16381        22.99623        -1.12073
C         33.98797        22.32029        -0.78747
C         35.33996        24.41480        -0.90294
C         34.31455        25.04032         0.02024
C         35.57058        27.25680        -0.16321
C         34.32005        26.54139         0.11164
C         35.45339        28.75113        -0.39412
C         34.56182        29.36615         0.65272
C         35.71395        31.56569         0.32987
C         34.72068        30.74491         0.92162
C         35.63548        33.00392         0.26661
C         34.37785        33.74947         0.30590
C         35.69608        35.92975         0.33943
C         34.40633        35.19212         0.07274
C         35.67644        37.36094        -0.12942
C         34.48541        38.06931        -0.20435
C         35.74403        40.22014        -0.11992
C         34.48158        39.51510        -0.28473
C         35.68318        41.66255         0.04251
C         34.51026        42.36919        -0.03344
C         34.56997        43.89558         0.00064
C         36.42045        25.13503        -1.35609
C         37.62160        27.41218        -1.64731
C         36.67823        26.53798        -0.96557
C         37.84059        28.76117        -1.22717
C         36.77209        29.46592        -0.50413
C         38.15379        31.50533        -0.30658
C         36.85670        30.80488        -0.19819
C         38.12209        33.00514        -0.28279
C         36.84027        33.74662        -0.09346
C         38.11399        35.86461        -0.43284
C         36.88701        35.13214        -0.13973
C         38.15774        37.24047        -0.44949
C         36.91256        38.06605        -0.59948
C         36.92749        39.51170        -0.15590
C         38.99171        29.46342        -1.56471
C         40.31273        31.62216        -1.61721
C         39.36597        30.73390        -0.83993
C         40.31714        32.96946        -1.52891
C         39.26787        33.73742        -0.87577
C         39.28346        35.10071        -0.83650
O         12.63715        26.79634        -2.86765
O         13.52096        31.53124        -2.76918
O         20.22529        20.65526        -0.75795
O         27.42088        38.51486         1.13628
O         38.49154        32.23076         0.93147
O         30.21352        42.06763        -2.05375
O         19.84958        52.81053        -0.32933
O         31.65244        22.73193        -1.43289
O         10.57608        33.42111         1.37620
O         16.67980        17.47887         2.10171
O         14.95754        34.01996        -2.55464
O         15.82011        23.66569        -2.16449
O         31.61748        21.01836         1.89972
O         25.24423        30.97561        -2.55764
O         30.58339        33.07218        -1.84359
O          9.87435        37.68741         1.38993
O         26.08090        16.56619         3.61863
O         19.31432        34.97730        -2.67671
O         32.46734        29.13769         1.86397
O         11.05334        39.81011         1.84436
O         21.87584        48.38071         2.16090
O         17.76209        37.17631         1.36046
O         11.24596        35.91665        -1.40506
O          8.36141        31.97046         1.45560
O         22.38864        43.85736        -1.13681
O         19.76338        22.97350         1.90569
O         22.76361        18.30273        -0.01380
O         18.31073        27.80049        -2.17001
O         21.54624        54.58533         2.54595
O         31.13356        26.41476         1.99501
O         30.85007        45.34454        -1.77017
O         36.72728        26.76476         0.51882
O         32.40882        44.09938         1.25541
O         16.71456        43.54656         2.64531
O         21.67603        41.85854         1.99971
O         18.43362        25.23000         1.33092
O         13.96702        44.27361        -0.80628
O         27.35711        14.39130         3.71382
O         27.63071        44.21044        -1.95720
O         18.79815        39.78756        -0.79004
O         28.99322        25.33454         2.30355
O         21.55245        33.51644        -3.10822
O         29.36255        31.57549         1.16465
O         19.07717        50.59177         2.64504
O         10.47849        28.15970        -2.72192
O         25.10978        35.17722         0.50897
O         20.11962        31.03801        -2.86811
O         21.49493         8.37187        -1.90669
O         23.50601        52.27519        -1.66481
O         25.19252        10.57607         2.56116
O         20.49538        46.05895         2.41320
O         26.16336        27.60963         2.01458
O         33.83967        31.32536         1.83655
O         24.36103        56.90842         2.08965
O         26.02533         8.42134        -0.86907
O         22.66406        48.82000        -1.34446
H         23.20334        49.48498        -1.83582
O         14.44341        20.51177        -1.98631
H         14.30541        21.32036        -2.52769
O         34.76906        28.87208        -1.68560
H         34.72538        29.82234        -1.92231
O         13.46428        40.47611         2.40703
H         12.55930        40.59801         2.77892
O          7.93911        28.82831        -2.72530
H          8.76409        28.47189        -3.14178
O         26.84596        48.19581        -2.10757
H         25.96669        47.82730        -2.37445
O         12.58044        18.39529        -1.23318
H         13.12620        18.85933        -1.90936
O         34.64039        24.53473         1.35443
H         34.04589        24.97065         2.00179
O         35.21848        44.36432        -1.19392
H         34.70660        44.05786        -1.97055
O         23.50171        59.29742         2.62734
H         24.13955        58.63803         2.98617
O         20.68767        10.32167         1.45414
H         20.75689         9.36656         1.66145
O         14.29995        25.41819         0.68119
H         15.01518        26.01221         1.03454
O         25.69550        53.30058        -2.03676
H         24.95326        53.86871        -2.33923
O         17.69534        25.33828        -2.16064
H         17.26706        24.63766        -2.70891
O         36.76631        38.14709        -2.08737
H         35.96781        38.68866        -2.27112
O         30.93771        27.20552        -1.44320
H         30.46204        27.89621        -1.96636
O         13.37081        24.24528        -2.67654
H         13.19640        25.10141        -3.14358
O         21.19503        12.23157        -1.59991
H         21.18229        13.19703        -1.76828
O         24.19380        46.92591        -1.96197
H         24.17120        46.02801        -2.37886
O         31.38266        34.55938         1.40370
H         31.23302        33.83606         2.04888
O         29.66053        29.46643        -1.93382
H         28.83307        29.78127        -2.35908
O         40.13560        30.29159         0.32235
H         39.98179        30.96757         1.02367
O         25.47227        29.94219         1.32844
H         25.91678        29.47097         2.07401
O         24.62606        47.71553         1.59342
H         24.10855        48.34044         2.14609
O         21.40520        17.02831         3.12635
H         21.22122        16.15221         3.52620
O         25.23466        25.07349         2.77476
H         25.41538        26.03648         2.90896
O         15.77107        36.60915        -2.03410
H         15.57089        35.84119        -2.62646
O         16.66646        46.22924         2.91596
H         16.66859        45.22554         3.04073
O         25.04172        57.22113        -1.53969
H         25.73476        57.58003        -2.13341
O         24.93670        44.06304         1.56158
H         24.51289        43.41090         2.15868
O         30.21105        17.32455         3.62369
H         30.45354        16.47003         4.04020
O         22.17315        37.45774         1.52100
H         23.00872        37.79575         1.91054
O         32.53218        34.73189        -2.09746
H         31.83171        34.14784        -2.47887
O         35.84944        36.00910         1.80663
H         35.82916        35.09037         2.15212
O         28.19609        45.69428         1.37852
H         27.80744        46.46991         1.83613
O         16.05010        31.78402        -3.38678
H         15.25841        32.18727        -3.81059
O         31.69248        51.00620        -0.43134
H         31.52123        50.90875        -1.39043
O         23.40362        22.92324        -0.99116
H         23.25300        21.96335        -1.13525
O         25.80927        40.35118         1.83374
H         26.27524        39.56284         2.20276
O         22.19017        35.98097        -2.99237
H         21.61978        35.40563        -3.55791
O         11.25326        30.96621         1.23149
H         10.71954        31.50656         1.86347
O         25.05742        44.36960        -2.05246
H         25.82946        44.42224        -2.66374
O         17.22494        42.73376        -0.86459
H         17.46886        41.94913        -1.40339
O         24.13638        51.21250        -2.42385
H         25.01215        51.62783        -2.66161
O         16.55878        26.93418         0.96327
H         17.26468        26.46964         1.48829
H          4.85227        31.07942        -0.01210
H          4.88024        33.50915         0.32212
H          7.41884        26.96271        -0.35079
H          5.99647        29.12504        -0.94417
H          6.10189        35.60283        -0.12645
H          7.22891        37.68454        -0.65794
H          9.93421        22.80237         0.21373
H          8.71262        24.88082        -0.06229
H          9.02546        39.98104        -0.97869
H          9.92675        42.24366         0.04629
H         12.32565        18.49607         0.82023
H         11.08736        20.64037         0.46888
H         11.02484        44.22106         0.84206
H         12.40726        46.55417         1.13957
H         14.84798        14.13690        -0.25970
H         13.50248        16.23331         0.10311
H         13.67301        48.54986         1.11518
H         14.83753        50.63621         1.27398
H         17.46110        10.00780        -0.75643
H         16.17233        12.04792        -0.43347
H         16.02679        52.82671         1.58746
H         17.29026        55.03986         1.64061
H         20.33907         5.58569        -0.46001
H         18.54796         7.86257        -0.45474
H         18.58573        57.21078         1.41743
H         19.76441        59.25463         1.01472
H         23.71213         2.60815        -0.94166
H         21.55678         3.82300        -1.19474
H         22.96736        62.69483         0.16199
H         20.88609        61.40052         0.54712
H         25.72444         3.87286        -0.20377
H         26.42406         5.67824         1.01444
H         26.33755        59.45451        -0.39854
H         25.15383        61.56220        -0.06434
H         28.18535         7.96428         1.58252
H         29.11328        10.13503         1.93377
H         28.99056        55.06169        -0.02927
H         27.77403        57.22932        -0.00320
H         30.10970        12.15714         1.99947
H         31.24580        14.12089         1.27141
H         30.89222        50.45439         1.37435
H         30.21480        52.96518         0.13283
H         32.41750        16.20035         0.46329
H         33.54085        18.23610        -0.27315
H         34.08130        46.64468         0.15678
H         32.77572        48.77200         0.19976
H         34.73525        20.28616        -1.03052
H         36.03159        22.41352        -1.46797
H         36.63076        42.20581         0.17872
H         35.22176        44.21477         0.85459
H         37.13781        24.66072        -2.04434
H         38.28005        26.98199        -2.41761
H         39.11659        37.73306        -0.67614
H         37.89006        40.03675        -0.05902
H         39.78431        28.95609        -2.13572
H         41.13068        31.11635        -2.15264
H         41.11241        33.54440        -2.02895
H         40.14673        35.65136        -1.24042
