         480
 CSIRO Nanostructure Databank - Neutral Graphene Oxide Data Set
C         37.65213        50.87251        -1.25130
C         36.46483        51.58535        -1.13931
C         37.71834        53.62121        -0.78986
C         36.49802        52.96643        -0.90583
C         40.20245        49.43632        -1.63352
C         40.15093        50.76293        -1.21827
C         38.90362        51.51638        -1.13715
C         40.22330        53.60866        -0.81475
C         38.93742        52.91886        -0.90355
C         40.32712        54.98892        -0.73610
C         42.63280        49.24821        -1.35614
C         41.42747        48.72152        -1.76664
C         42.58095        50.56563        -0.59628
C         41.39305        51.44247        -0.93802
C         42.73241        53.53746        -0.91393
C         41.43337        52.81743        -0.79640
C         42.77865        54.99632        -0.70352
C         41.58581        55.66236        -0.64252
C         44.99926        46.32675        -1.60103
C         43.91752        47.09774        -1.82376
C         45.09806        49.10443        -1.12003
C         43.89136        48.51350        -1.43039
C         45.18889        50.51876        -0.74250
C         43.93404        51.30300        -0.57916
C         45.37829        53.46951        -0.96303
C         44.00329        52.75647        -0.97405
C         45.30359        54.82838        -0.29535
C         44.12274        55.71579        -0.66128
C         45.20358        57.43367         0.80710
C         44.08803        56.94640         0.20631
C         47.49246        44.72481        -1.16594
C         47.51472        46.12576        -1.10048
C         46.22919        46.91061        -0.92868
C         47.64466        49.01912        -0.91255
C         46.38111        48.35203        -1.41014
C         47.68465        50.42413        -0.68090
C         46.49864        51.21340        -0.78437
C         47.72599        53.17895        -0.04913
C         46.53253        52.58489        -0.52764
C         47.64952        54.54973         0.49371
C         46.43428        55.37569         0.28231
C         47.69736        57.38956         1.08611
C         46.45928        56.73360         0.76242
C         47.73683        58.77311         1.40613
C         49.92294        44.60043        -1.06127
C         48.66389        43.97371        -1.18598
C         49.93911        46.02050        -0.92861
C         48.76350        46.79660        -1.01455
C         50.07377        48.95135        -0.71640
C         48.82669        48.26615        -0.90321
C         50.10621        50.28802        -0.29913
C         48.90970        51.05387        -0.29359
C         50.17973        53.10336         0.40736
C         48.91660        52.44026         0.07624
C         50.21826        54.52007         0.61578
C         48.94547        55.24048         0.82704
C         50.16749        57.38849         1.07782
C         48.94801        56.70830         0.96560
C         50.17564        58.76848         1.38732
C         48.93820        59.43098         1.57767
C         52.42227        41.75467        -1.37035
C         51.23123        42.48154        -1.46022
C         52.37530        44.44195        -0.51809
C         51.15723        43.82592        -1.08228
C         52.39591        45.95104        -0.38261
C         51.24686        46.71494        -0.93802
C         52.68243        48.94781        -0.88266
C         51.33322        48.21560        -0.96776
C         52.61096        50.29303        -0.21142
C         51.35277        50.87194         0.34545
C         52.62588        53.08356         0.55170
C         51.38891        52.39183         0.37187
C         52.65374        54.49312         0.77573
C         51.42623        55.20553         0.75615
C         52.69860        57.31646         1.32385
C         51.46473        56.71265         0.68470
C         52.66357        58.69454         1.68178
C         51.44234        59.45042         1.61028
C         52.65898        61.45999         2.25325
C         51.48191        60.82818         1.83475
C         54.91572        40.16938        -1.04256
C         54.89380        41.61592        -1.02773
C         53.65537        42.34855        -0.97276
C         54.89869        44.38614        -0.37268
C         53.66939        43.72000        -0.58180
C         54.92922        45.80371         0.08637
C         53.67670        46.66104        -0.03799
C         55.00743        48.75973         0.00968
C         53.81908        48.12455        -0.24561
C         55.15508        50.23130        -0.13192
C         53.83348        51.04400        -0.13775
C         55.09054        53.03358         0.72414
C         53.87284        52.39715         0.43303
C         55.09894        54.43138         1.03093
C         53.90651        55.16279         1.02365
C         55.11857        57.24318         1.76177
C         53.90052        56.58927         1.36143
C         55.07737        58.59336         2.13766
C         53.86375        59.34254         2.11078
C         55.00569        61.37433         3.09484
C         53.82846        60.73517         2.45425
C         55.11940        62.83933         3.20542
C         57.35353        40.09474        -1.39695
C         56.06673        39.44517        -1.09061
C         57.37020        41.61099        -1.30953
C         56.11666        42.32926        -0.96732
C         57.39527        44.46924        -0.70426
C         56.11529        43.70871        -0.64869
C         57.47418        45.89756        -0.29164
C         56.23576        46.52885         0.22738
C         57.54711        48.73140         0.25632
C         56.24530        48.02651         0.35128
C         57.55091        50.14040         0.48269
C         56.34984        50.89418         0.41547
C         57.54193        52.87679         1.19743
C         56.34300        52.26905         0.74379
C         57.44686        54.20078         1.91761
C         56.44565        55.11830         1.17972
C         57.50938        57.01380         2.40507
C         56.38275        56.48841         1.82576
C         57.47749        58.40863         2.88752
C         56.38360        59.31265         2.35277
C         57.56126        61.34783         3.26188
C         56.28888        60.60041         3.14528
C         57.58737        62.73054         3.26595
C         56.32364        63.45240         3.28814
C         60.02185        37.32965        -1.48103
C         58.82630        37.96025        -1.47869
C         59.90032        40.12928        -0.71436
C         58.63696        39.36458        -1.03915
C         60.00511        41.58258        -1.06047
C         58.70618        42.32322        -1.17941
C         59.94439        44.39646        -0.23152
C         58.66528        43.69591        -0.59008
C         59.95828        45.87756        -0.05718
C         58.76426        46.56993         0.01821
C         59.99260        48.67326         0.44314
C         58.74416        47.99661         0.23463
C         59.98246        50.05987         0.75145
C         58.77449        50.80547         0.77001
C         60.00033        52.80387         1.57095
C         58.76686        52.18460         1.13862
C         59.96858        54.19039         2.05684
C         58.78417        54.86596         2.17248
C         60.04338        56.96592         2.91592
C         58.71385        56.19530         2.89484
C         60.05089        58.33774         3.02703
C         58.77312        59.07793         3.22687
C         60.10889        61.30957         3.11820
C         58.80519        60.57445         3.35589
C         60.03288        62.75109         2.84393
C         58.84926        63.43949         3.04038
C         59.84289        65.47513         2.09798
C         58.82994        64.86843         2.78032
C         62.80907        36.17964        -1.80863
C         62.58585        37.33061        -0.97825
C         61.23069        37.89243        -0.83346
C         62.43128        40.09453        -0.19470
C         61.17447        39.37496        -0.45053
C         62.32483        41.58151         0.09979
C         61.38252        42.27500        -0.92264
C         62.29087        44.59464        -0.75831
C         61.21095        43.76539        -0.64050
C         62.41893        45.90751        -0.21165
C         61.22390        46.57332         0.07283
C         62.46701        48.66155         0.56234
C         61.22247        47.97488         0.38833
C         62.43442        50.03174         0.93077
C         61.20342        50.70620         1.07563
C         62.37328        52.45351         2.37064
C         61.16720        52.04840         1.57206
C         62.20580        53.84866         2.86006
C         61.21811        54.74260         2.60094
C         62.64439        56.91980         2.90472
C         61.31419        56.15647         3.20507
C         62.56183        58.39800         2.77355
C         61.26091        59.11580         2.80593
C         62.35224        61.21287         2.02224
C         61.25846        60.49883         2.65833
C         62.33011        62.57235         1.83618
C         61.31514        63.48437         2.50509
C         61.97500        65.32373         0.86178
C         61.04503        64.77397         1.74155
C         61.72977        66.51103         0.10002
C         65.08371        35.91839        -0.93375
C         64.02111        35.56780        -1.87829
C         64.91885        37.23215        -0.14990
C         63.65886        37.97497        -0.34371
C         64.69644        39.96415         0.85687
C         63.57422        39.35795         0.06976
C         64.69144        41.47606         1.05840
C         63.71257        42.21663         0.23037
C         65.06673        44.31615         0.42623
C         64.07892        43.45804        -0.20398
C         64.98163        45.73144         0.40894
C         63.79941        46.56403        -0.17884
C         64.91081        48.60950         0.77262
C         63.71831        47.95250         0.44165
C         64.92889        50.03129         0.98880
C         63.68469        50.86695         0.83478
C         64.88452        52.85650         1.71870
C         63.70504        52.14712         1.67594
C         65.07565        54.24879         2.16902
C         64.13232        54.93201         2.91620
C         65.19169        57.16699         2.71294
C         63.90561        56.35741         2.84922
C         64.99341        58.41827         1.86550
C         63.74185        59.13360         2.17732
C         64.64412        61.08652         0.88947
C         63.39049        60.35558         1.31615
C         64.56841        62.45316         0.60314
C         63.46288        63.25078         1.16999
C         64.19108        65.15262        -0.39843
C         63.29160        64.67259         0.67608
C         63.85452        66.29510        -1.11598
C         62.62698        66.97222        -0.83435
C         67.84717        33.53273        -1.82559
C         66.62709        34.18195        -1.81398
C         67.54470        35.98832        -0.44080
C         66.45017        35.37989        -1.09597
C         67.39336        37.28118         0.23448
C         66.15131        37.90593         0.32432
C         67.25406        39.92232         1.49871
C         65.98570        39.19259         1.04686
C         67.23297        41.41803         1.72631
C         65.95774        42.20472         1.44338
C         67.32302        44.31158         1.35744
C         66.12220        43.63395         1.09222
C         67.34691        45.73107         1.17297
C         66.14115        46.43980         0.84429
C         67.36334        48.58132         1.06338
C         66.15639        47.88161         0.87936
C         67.37762        50.02305         1.02944
C         66.12227        50.71998         1.03508
C         67.36544        52.93263         0.94793
C         66.05838        52.20567         1.04380
C         67.45268        54.31066         1.42919
C         66.29503        55.01824         1.84638
C         67.60935        57.22724         1.96847
C         66.36612        56.38105         2.17326
C         67.33367        58.41053         1.05183
C         65.98799        58.99291         1.10972
C         66.89541        61.01359        -0.04114
C         65.82174        60.35693         0.58942
C         66.78367        62.37278        -0.40577
C         65.60711        63.10250        -0.11157
C         66.38697        64.98574        -1.51085
C         65.41125        64.42793        -0.66715
C         66.16078        66.28674        -2.12837
C         64.70888        66.68465        -2.31688
C         65.58260        68.90074        -3.07150
C         64.55112        68.11213        -2.76093
C         70.34749        32.05032        -1.64198
C         70.20770        33.33654        -1.06702
C         68.95184        34.06699        -1.12951
C         69.96279        35.93390         0.13690
C         68.81020        35.32533        -0.47738
C         69.86197        37.26779         0.65323
C         68.60043        37.95082         0.71121
C         69.76153        39.96599         1.53109
C         68.55867        39.27469         1.20666
C         69.72615        41.38408         1.95489
C         68.50430        42.17180         1.70354
C         69.79429        44.29442         1.70939
C         68.53340        43.56395         1.65703
C         69.80756        45.71053         1.50433
C         68.58230        46.43367         1.29561
C         69.83612        48.54984         1.19160
C         68.60811        47.85876         1.18934
C         69.89047        50.05157         1.27588
C         68.58822        50.73604         0.96715
C         69.82931        52.82262         0.62293
C         68.61927        52.14633         0.85128
C         69.90097        54.23162         0.77375
C         68.77320        54.92353         1.42737
C         69.93347        57.11112         0.86202
C         68.84688        56.44026         1.56690
C         69.81047        58.60840         0.70437
C         68.37050        59.02588         0.41752
C         69.37021        61.21267        -0.36651
C         68.15344        60.26153        -0.42870
C         69.08348        62.39822        -1.25974
C         67.86259        63.01079        -1.14972
C         68.67917        64.97804        -2.39762
C         67.64516        64.33051        -1.72039
C         68.61793        66.47152        -2.63153
C         67.20095        67.02253        -2.61808
C         67.85411        68.96023        -4.12163
C         67.03156        68.50111        -2.92113
C         67.86477        70.39789        -4.42835
C         72.63274        31.90922        -0.87235
C         71.53871        31.34765        -1.54933
C         72.52218        33.16872        -0.30479
C         71.31746        33.90833        -0.39021
C         72.32526        35.88093         0.75492
C         71.19816        35.24206         0.17209
C         72.25561        37.18134         1.19034
C         71.04210        37.91838         1.11171
C         72.23547        40.04980         1.60793
C         71.00160        39.30683         1.46591
C         72.26957        41.38711         1.81469
C         71.04090        42.14297         2.09769
C         72.22857        44.33123         1.89565
C         71.01753        43.61285         1.90308
C         72.24668        45.69914         1.68214
C         71.04914        46.41088         1.46954
C         72.26053        48.54171         0.94855
C         71.06956        47.84322         1.22771
C         72.23760        49.89865         0.52539
C         71.09011        50.64849         0.57960
C         72.26482        52.84448         0.04391
C         70.98549        52.05128         0.01664
C         72.27121        54.19172         0.16547
C         71.07466        54.95094         0.47744
C         72.13498        57.12382        -0.20294
C         71.05134        56.39772         0.43406
C         72.01879        58.44011        -0.52794
C         70.83542        59.20971        -0.23395
C         71.69810        61.24919        -1.37623
C         70.65748        60.49298        -0.70067
C         71.44406        62.38801        -2.05677
C         70.02779        62.81017        -2.35173
C         70.74975        64.84261        -3.65091
C         69.87003        64.26509        -2.76026
C         70.45861        66.10844        -4.26008
C         69.41237        66.88708        -3.85870
C         70.10479        68.87437        -5.31636
C         69.07073        68.15075        -4.56425
C         69.91791        70.15894        -5.71975
C         68.79409        70.93267        -5.26297
O         59.65596        60.96918         4.47696
O         54.70023        50.86774        -1.33894
O         63.24579        54.21714         3.73086
O         51.37114        47.41471        -2.22098
O         48.13111        54.60054         1.88376
O         44.64818        50.92680         0.63263
O         57.37853        45.53196        -1.72582
O         67.76519        68.07518        -5.26784
O         62.79781        59.85043         0.14612
O         51.99242        45.12316         0.74476
O         60.97024        38.31744         0.53399
O         55.42500        60.61192         4.30491
O         43.33353        53.04918        -2.23358
O         58.94427        39.77205         0.33780
O         66.36848        41.88906         2.80374
O         64.17184        40.59016         2.08214
O         66.45870        52.79566        -0.23696
O         59.15796        43.67483         0.79402
O         54.12311        46.13808         1.24807
O         66.44486        39.15054         2.43175
O         64.68230        35.92612         0.47283
O         63.98033        64.40033         1.95898
O         63.51623        59.19306         3.59672
O         63.45879        44.05500        -1.31006
O         69.22341        55.57211         2.69050
O         57.88602        58.53041         4.28348
O         56.32000        47.14672         1.53812
O         70.31395        41.66086         3.27425
O         59.49782        42.03944        -2.37011
O         57.30423        40.90203        -2.59983
O         44.35492        56.17580        -2.04441
H         45.25475        56.56489        -2.07623
O         69.32866        67.07965        -1.49202
H         68.94793        66.69928        -0.67210
O         46.52332        48.28310        -2.86005
H         46.66883        49.19098        -3.19896
O         45.72220        53.76027        -2.35057
H         44.87187        53.99754        -2.79854
O         69.48553        61.71811         0.98593
H         69.78296        60.96600         1.56059
O         70.10306        59.20125         2.02561
H         69.43437        58.83418         2.66281
O         56.97279        55.30928        -0.16487
H         56.25991        55.67824        -0.72700
O         62.03323        42.07922        -2.19181
H         61.39608        42.35161        -2.89029
O         64.16253        46.78564        -1.58109
H         64.15790        45.89988        -2.01148
O         51.27288        50.45060         1.76121
H         50.49334        50.89460         2.15936
O         61.30823        56.00894         4.64850
H         62.08795        55.45942         4.88884
O         45.97815        46.96377         0.50105
H         45.87622        46.04682         0.83026
O         56.84471        59.73739         1.02720
H         56.84671        58.95338         0.43763
O         61.71510        41.72873         1.39454
H         62.27304        41.23568         2.04277
O         70.64030        51.87044        -1.40411
H         70.51079        52.76120        -1.79328
O         61.92174        63.88409         3.77591
H         62.81092        64.24954         3.54775
O         63.69266        51.34501        -0.55718
H         63.86215        50.57416        -1.13960
O         65.49541        57.59536         4.06639
H         66.33692        58.10975         4.03377
O         67.56405        69.23991        -1.78562
H         67.09813        68.93807        -0.97864
O         62.37531        51.58216         3.55191
H         62.93186        52.02534         4.22936
O         64.20959        65.86686        -3.42257
H         64.42333        64.93137        -3.22083
O         56.86421        53.89239         3.21393
H         57.27551        54.49527         3.88518
O         58.38520        55.87229         4.28479
H         58.28891        56.73962         4.75539
O         69.60049        62.01643        -3.52189
H         69.22817        61.16946        -3.18288
O         68.03949        59.85601        -1.82719
H         67.17394        59.40976        -1.94435
O         67.99755        57.83604         3.25931
H         68.38861        57.09896         3.78653
O         70.10749        50.34836         2.71964
H         70.91723        49.86486         2.99259
O         51.60941        56.99766        -0.75905
H         51.64747        57.97283        -0.86048
O         42.28472        50.17240         0.78030
H         43.15801        50.04734         1.22668
O         53.10636        49.19185        -2.25367
H         52.73636        48.46371        -2.80593
H         37.60576        49.78755        -1.41677
H         35.50129        51.06454        -1.22602
H         37.72139        54.70301        -0.59938
H         35.56071        53.53171        -0.81080
H         39.28140        48.91558        -1.92906
H         39.42457        55.61416        -0.73970
H         41.37892        47.71805        -2.21320
H         41.56077        56.75560        -0.53499
H         44.96418        45.25723        -1.85648
H         43.01706        46.65109        -2.26851
H         45.13679        58.38594         1.35195
H         43.16014        57.53238         0.25933
H         46.53011        44.19569        -1.21458
H         46.80473        59.33940         1.52981
H         48.59718        42.88049        -1.26725
H         48.91824        60.49273         1.85548
H         52.41467        40.70339        -1.68773
H         50.33653        41.97006        -1.84243
H         52.62669        62.53486         2.47342
H         50.57438        61.43644         1.73067
H         53.96751        39.63934        -0.87300
H         54.20837        63.45397         3.17711
H         56.04502        38.35879        -0.92148
H         56.34006        64.54795         3.35792
H         60.08574        36.32327        -1.92042
H         57.96613        37.46963        -1.95956
H         59.73655        66.53441         1.82369
H         57.95027        65.46335         3.05668
H         61.99848        35.84683        -2.47204
H         60.78608        67.05604         0.23834
H         64.19772        34.79852        -2.64180
H         62.37170        67.87521        -1.40488
H         67.92981        32.58119        -2.36507
H         65.77576        33.71813        -2.32862
H         65.38785        69.92671        -3.42114
H         63.52703        68.48100        -2.92305
H         69.50469        31.58200        -2.16689
H         67.12425        71.04709        -3.93876
H         73.57536        31.35068        -0.79137
H         71.62390        30.34909        -1.99956
H         73.39130        33.58226         0.22311
H         73.28201        35.35032         0.83787
H         73.15357        37.64209         1.62083
H         73.18494        39.53052         1.42340
H         73.23341        41.91176         1.76572
H         73.17857        43.81335         2.07981
H         73.20993        46.22530         1.69778
H         73.21968        48.00894         0.91322
H         73.16398        50.32023         0.10924
H         73.21077        52.32027        -0.15463
H         73.23050        54.72467         0.10053
H         73.04794        56.58388        -0.48571
H         72.83881        58.92434        -1.07667
H         72.73964        60.90610        -1.27763
H         72.27658        62.94615        -2.51043
H         71.63047        64.28756        -4.00255
H         71.08287        66.41377        -5.11223
H         71.05827        68.37168        -5.53312
H         70.69683        70.66642        -6.30680
H         68.76523        72.00489        -5.50450
