         349
 CSIRO Nanostructure Databank - Neutral Graphene Oxide Data Set
C          1.76388         2.62873        -3.32844
C          1.67179         3.96967        -3.04259
C          2.98413         1.91404        -3.23937
C          2.87515         4.77596        -2.81861
C          1.45326         6.81580        -2.06966
C          1.29106         7.93417        -1.34264
C          2.78219         6.18518        -2.27412
C          2.38899         8.57105        -0.58316
C          1.18817        10.88982        -0.59891
C          1.17864        12.19782        -0.29851
C          2.28929        10.00989        -0.12387
C          2.18963        12.76159         0.67831
C          1.08804        15.03154         0.79100
C          1.12591        16.42927         0.79408
C          2.26697        14.27829         0.68248
C          2.34742        17.11467         0.74035
C          2.41147        18.57068         0.68036
C          4.14956         2.52255        -2.75944
C          4.17906         3.99198        -2.59458
C          5.32636         1.79177        -2.49093
C          5.23736         4.56597        -1.73184
C          3.94240         6.73208        -1.47692
C          3.73783         7.94848        -0.63219
C          5.12188         5.86758        -1.19630
C          4.79674         8.51401         0.01102
C          3.54588        10.70787         0.26365
C          3.52299        12.04007         0.50556
C          4.75459         9.87898         0.68823
C          4.80360        12.76442         0.85440
C          3.49980        14.95423         0.61979
C          3.55755        16.37048         0.67173
C          4.73850        14.19669         0.35877
C          4.82589        17.06296         0.70573
C          3.57646        19.23142         0.82606
C          4.83647        18.49204         1.19592
C          6.45678         2.38812        -1.89118
C          6.35761         3.76227        -1.39834
C          7.65957         1.67280        -1.75375
C          7.40373         4.29228        -0.60831
C          6.14630         6.36698        -0.36622
C          6.02311         7.71623         0.22004
C          7.30719         5.60475        -0.09714
C          7.34551         8.48971         0.47479
C          6.05602        10.64513         0.45590
C          6.03922        12.01687         0.40119
C          7.30651         9.93710         0.33136
C          7.25469        12.75706        -0.12493
C          6.02840        14.95549         0.18954
C          6.02350        16.40058         0.48473
C          7.29950        14.21947         0.24138
C          7.29213        17.07460         0.57116
C          6.11081        19.21307         0.86747
C          7.30455        18.52608         0.70713
C          8.77932         2.18119        -1.03584
C          8.56551         3.43373        -0.26280
C         10.02157         1.56963        -1.09735
C          9.74808         4.05748         0.43712
C          8.50239         6.29721         0.45341
C          8.59055         7.76292         0.28184
C          9.78734         5.55394         0.60216
C          9.80815         8.44505         0.23223
C          8.54715        10.60045         0.19761
C          8.56193        12.05126         0.12401
C          9.76680         9.86519         0.24417
C          9.73990        12.76034         0.06982
C          8.49458        14.91012         0.32860
C          8.49452        16.36022         0.46493
C          9.75752        14.20493         0.16542
C          9.75232        17.05149         0.51415
C          8.56186        19.20402         0.68026
C          9.77908        18.50774         0.62600
C         11.19536         2.04222        -0.35206
C         11.06593         3.33044         0.43741
C         12.56003         1.61533        -0.68511
C         12.30907         4.10265         0.79532
C         11.07865         6.16430         0.06190
C         11.06182         7.72793        -0.26187
C         12.26669         5.61877         0.83942
C         12.46065         8.41504         0.04296
C         11.03313        10.63557         0.49830
C         11.01582        11.99028        -0.20533
C         12.32812         9.90657         0.24420
C         12.27018        12.76382         0.08226
C         10.95613        14.92287         0.16712
C         10.94581        16.33200         0.40776
C         12.23136        14.22223        -0.27146
C         12.21970        17.04398         0.64736
C         11.01108        19.20627         0.67371
C         12.26164        18.53157         0.71556
C         13.69205         2.21850        -0.15693
C         13.62616         3.49151         0.57402
C         14.98157         1.68689        -0.47655
C         14.76698         4.21807         0.84581
C         13.51756         6.36306         0.97251
C         13.30481         7.83443         1.21491
C         14.73930         5.66578         1.11841
C         14.62224         8.70297         1.49668
C         13.49450        10.61813         0.34582
C         13.46992        12.08210         0.25947
C         14.75231         9.91852         0.59857
C         14.71069        12.77364         0.21701
C         13.50777        14.91121         0.08381
C         13.50910        16.34021         0.43324
C         14.70910        14.20240         0.18480
C         14.72070        17.19069         0.07734
C         13.47030        19.17361         0.93057
C         14.79412        18.43303         1.07588
C         16.15679         2.26912        -0.01290
C         16.06914         3.45314         0.92946
C         17.41134         1.67371        -0.24732
C         17.27926         4.35954         0.83797
C         15.93113         6.40028         1.31969
C         15.96946         7.87033         1.66778
C         17.20729         5.65438         1.63825
C         17.23259         8.55796         1.11661
C         15.96452        10.57315         0.46822
C         15.96037        12.00355         0.08968
C         17.23134         9.90826         0.73679
C         17.25566        12.75665         0.10323
C         15.94988        14.94389         0.21674
C         15.95951        16.31636         0.03505
C         17.26378        14.23283         0.46315
C         17.18952        16.96190        -0.26598
C         16.00452        19.36567         0.99432
C         17.17771        19.08186         0.33094
C         18.62444         2.27316         0.17141
C         18.58419         3.69827         0.58735
C         19.84796         1.62097         0.11595
C         19.79688         4.27947         1.22694
C         18.48096         6.46472         1.47678
C         18.47956         7.83695         1.22923
C         19.74396         5.72264         1.66781
C         19.74698         8.54222         1.07436
C         18.48623        10.62938         0.61251
C         18.52005        12.03433         0.39510
C         19.73102         9.93743         0.80304
C         19.72222        12.77778         0.42417
C         18.46460        14.88435        -0.23470
C         18.45267        16.39652        -0.07863
C         19.74199        14.21485         0.20174
C         19.63020        17.16538         0.05082
C         18.52599        19.42626         0.62373
C         19.65401        18.61323         0.28664
C         21.08506         2.22817         0.53515
C         21.08710         3.59660         1.01990
C         22.27546         1.52333         0.39536
C         22.26077         4.29404         1.27288
C         21.04335         6.49157         1.87057
C         20.99992         7.88888         1.28857
C         22.29731         5.72700         1.45559
C         22.21161         8.56817         1.15867
C         20.96513        10.66166         0.74796
C         20.96932        12.08340         0.60981
C         22.20840         9.97103         0.86516
C         22.18968        12.79986         0.65332
C         20.89262        14.96757         0.27953
C         20.87164        16.42735         0.12090
C         22.16695        14.31274         0.79728
C         22.07033        17.13760         0.03939
C         20.91423        19.25861         0.31970
C         22.12101        18.57524         0.06061
C         23.52121         2.02467         0.95195
C         23.51845         3.55413         1.37308
C         24.81886         1.46550         0.60971
C         24.78752         4.26624         1.30904
C         23.50718         6.40433         1.42555
C         23.50538         7.91011         1.63304
C         24.77170         5.70880         1.32658
C         24.75532         8.55281         1.07340
C         23.42916        10.69930         0.76895
C         23.41737        12.10060         0.72813
C         24.69711         9.93649         0.48672
C         24.70758        12.91293         0.77116
C         23.43684        14.96849         0.20356
C         23.34616        16.42423        -0.13234
C         24.53347        14.03644        -0.24555
C         24.37776        17.18240        -0.87023
C         23.34707        19.27153        -0.15006
C         24.49892        18.60050        -0.63765
C         25.99013         2.13758         0.92774
C         25.97558         3.54367         1.25949
C         27.26115         1.48046         0.70327
C         27.24839         4.26194         1.49535
C         25.98957         6.41685         1.24995
C         25.95496         7.85405         1.05327
C         27.26005         5.73452         1.28075
C         27.21173         8.52790         0.81664
C         25.96122        10.73691         0.69409
C         25.97692        12.09288         0.61421
C         27.22183         9.98668         0.80527
C         27.28260        12.83227         0.51650
C         25.29821        14.28017        -1.33953
C         25.33165        16.51779        -1.59039
C         26.62242        13.79481        -1.75447
C         26.68986        16.96445        -1.68871
C         25.69179        19.20114        -1.07753
C         26.81153        18.41996        -1.52460
C         28.46826         2.09522         0.88440
C         28.53654         3.48964         1.39792
C         29.68910         1.41759         0.48175
C         29.83665         4.23826         1.27030
C         28.45175         6.40952         1.03554
C         28.42639         7.82679         0.75822
C         29.82640         5.78247         1.24000
C         29.60297         8.47219         0.20317
C         28.51705        10.69877         0.27346
C         28.38132        12.08536        -0.21050
C         29.54051         9.79514        -0.22721
C         29.17112        12.57140        -1.23617
C         27.75937        14.62011        -1.83091
C         27.78452        16.09092        -1.81762
C         29.04972        13.91367        -1.82111
C         29.12301        16.72572        -1.93992
C         27.99906        19.05152        -1.86713
C         29.21512        18.26997        -2.05646
C         30.87928         2.04925         0.40616
C         31.02745         3.47483         0.78058
C         32.13712         4.22790         0.16769
C         30.87413         6.35102         0.27870
C         30.78006         7.67365        -0.12542
C         32.03796         5.55815        -0.05816
C         31.84876         8.32750        -0.86800
C         30.45143        10.29612        -1.27268
C         30.25996        11.70720        -1.79342
C         31.71901         9.55738        -1.41052
C         31.40864        12.39705        -2.40625
C         30.19954        14.51990        -2.33417
C         30.22826        15.95373        -2.55028
C         31.39508        13.73685        -2.57538
C         31.29546        16.61118        -3.12775
C         30.32543        18.83008        -2.83048
C         31.32552        18.03183        -3.29506
O         29.76527        10.55278        -2.56934
O         17.92560         4.54041        -0.44922
O          9.10403         5.99258         1.78915
O          5.21968        14.48466        -0.99451
O         27.40548        13.96321         0.97219
O          3.75471         7.08214        -2.89958
O         29.57913        17.53945        -0.82266
O         10.86260         7.87366        -1.64450
O         30.83226         3.73731         2.23038
O         12.06492         4.80968         2.04592
O         17.07838        18.23598        -0.81146
O          6.53460         7.88132         1.54989
O         23.44925         2.47683         2.33930
O          1.94777         8.92015         0.79787
O         24.89734        15.32726        -2.19151
O         14.40267         9.38720         2.71658
O         16.66912        12.39255        -1.17535
O         28.21707        10.57168         1.69087
O         19.59984         4.63181         2.64815
O         12.95341        16.45633         1.81209
O         10.99775         2.07388         1.13213
O         27.92165         3.73772         2.70261
O         23.95766        15.95713         1.15859
O          3.90020         4.68322        -3.85333
O          8.73987         3.36022         1.19778
O          4.81928        18.41813         2.67767
H          5.61977        17.92242         2.95371
O         14.93335        17.95331         2.43151
H         14.11372        17.44848         2.66354
O          7.09821        12.69831        -1.59167
H          6.35141        13.31058        -1.81270
O         24.68381         9.74402        -0.99443
H         23.92304         9.15932        -1.20339
O         11.02561        11.73145        -1.63388
H         11.14703        12.60229        -2.08342
O         22.16867        14.55148         2.22575
H         23.07783        14.32874         2.54515
O         13.25515         8.19091        -1.13492
H         12.56833         8.15900        -1.86364
O         21.17579         6.67964         3.31645
H         20.86530         5.84216         3.73426
O         11.01203        10.90642         1.93513
H         11.37068        10.11653         2.39893
O         17.05030         5.30215         3.04308
H         16.80857         6.14867         3.50623
O         12.48532         7.90764         2.39492
H         13.01128         8.51539         3.00536
O         12.14790        14.25930        -1.77290
H         13.03801        14.02588        -2.11790
O         18.29893        14.64187        -1.65726
H         19.09620        14.96856        -2.12285
O         23.55117         8.13769         3.07534
H         22.75850         7.68435         3.46014
O         14.45854        17.70425        -1.24539
H         15.28371        18.14764        -1.55253
O         26.70392        12.49065        -2.12788
H         25.85023        12.02818        -2.00103
O         30.24024         6.23418         2.55646
H         30.74526         5.49078         2.96343
O         16.10876         2.86943         2.26484
H         16.27508         3.60425         2.90553
O          4.58591         9.70669         2.12081
H          3.78315         9.15544         2.25402
O          4.89988        12.85153         2.30352
H          4.82598        11.93568         2.65684
O         24.79540        13.51633         2.08487
H         25.60675        14.07782         2.08692
O         16.19829         7.81376         3.10866
H         15.56139         8.52922         3.45771
O         11.21047         5.50383        -1.22677
H         11.08710         6.26189        -1.88871
O          1.71565        12.39641         2.00896
H          1.61134        11.42140         2.03581
O         17.50663        14.33854         1.88682
H         16.71313        14.03233         2.37356
H          0.84696         2.06952        -3.56351
H          0.68142         4.44074        -2.97730
H          2.98646         0.83229        -3.43436
H          0.57980         6.37278        -2.56897
H          0.28491         8.35999        -1.22113
H          0.40837        10.46113        -1.24552
H          0.37603        12.84710        -0.67977
H          0.11888        14.51640         0.84919
H          0.18693        16.99883         0.84704
H          1.47574        19.11984         0.49467
H          5.35972         0.72205        -2.74587
H          3.60895        20.33030         0.78257
H          7.74011         0.68076        -2.22289
H          6.13128        20.30787         0.98288
H         10.15006         0.69950        -1.75951
H          8.57250        20.30110         0.76248
H         12.68553         0.75014        -1.35434
H         10.99376        20.30457         0.73900
H         15.03591         0.78413        -1.10419
H         13.47024        20.26845         1.04918
H         17.45023         0.69560        -0.75141
H         16.07819        20.03792         1.86473
H         19.88072         0.57517        -0.22402
H         18.72778        20.35011         1.18697
H         22.28276         0.56835        -0.15061
H         20.94098        20.34900         0.46389
H         24.86704         0.47949         0.12420
H         23.36056        20.36604        -0.03907
H         27.23853         0.44505         0.32997
H         25.81660        20.29192        -1.00768
H         29.60513         0.36108         0.18558
H         28.05083        20.14951        -1.91583
H         31.77332         1.51572         0.05124
H         33.03611         3.67600        -0.14308
H         32.88312         6.04990        -0.55822
H         32.80308         7.80370        -1.00792
H         32.54260         9.98653        -1.99708
H         32.27674        11.80690        -2.72798
H         32.28085        14.23137        -2.99466
H         32.13266        16.04065        -3.55156
H         30.30089        19.90178        -3.07671
H         32.15900        18.47023        -3.86188
