         615
 CSIRO Nanostructure Databank - Neutral Graphene Oxide Data Set
C         24.09682        69.97076         3.86431
C         24.06927        71.35860         3.85506
C         23.10373        72.09663         4.60573
C         24.26792        74.18308         4.16181
C         23.21041        73.47816         4.74191
C         25.84834        65.63530         2.10954
C         25.83809        67.05642         2.15282
C         24.99542        67.78219         2.96851
C         25.64615        70.00595         1.93558
C         25.24192        69.24878         3.20652
C         25.99290        71.43568         2.28968
C         25.11371        72.09951         3.15288
C         26.31447        74.20460         2.77091
C         25.24075        73.51438         3.36771
C         28.10993        61.37019         1.14295
C         28.09162        62.78217         1.12645
C         26.95167        63.51494         1.54774
C         28.08249        65.64559         1.02472
C         26.93094        64.92271         1.54268
C         28.04538        67.05300         0.88628
C         26.79778        67.76728         1.25692
C         27.89801        70.01818         0.59690
C         26.70882        69.25999         1.12885
C         28.10169        71.42998         0.97456
C         27.10806        72.11732         1.73435
C         28.41010        74.19916         1.46686
C         27.27660        73.52226         2.00073
C         30.51840        57.08480         0.78840
C         30.48151        58.49491         0.62749
C         29.29767        59.22378         0.85995
C         30.46732        61.35049         0.43491
C         29.27124        60.63993         0.80215
C         30.45536        62.77474         0.39652
C         29.27129        63.49620         0.71854
C         30.41505        65.63693         0.22227
C         29.25606        64.92497         0.65276
C         30.36992        67.05972         0.10853
C         29.16121        67.75462         0.38781
C         30.39753        69.94104         0.00609
C         29.12214        69.21786         0.16067
C         30.42859        71.34138         0.10860
C         29.29251        72.08469         0.60014
C         30.59494        74.19196         0.31233
C         29.42060        73.50576         0.80891
C         33.01230        52.83515         1.12377
C         32.97553        54.24201         0.91862
C         31.76540        54.95451         0.91770
C         32.94371        57.07145         0.41575
C         31.72197        56.36250         0.70799
C         32.88876        58.46205         0.12493
C         31.68977        59.19336         0.25578
C         32.84324        61.36077        -0.16847
C         31.66537        60.63271         0.13235
C         32.85978        62.78070        -0.17763
C         31.64715        63.49322         0.06157
C         32.79725        65.58601        -0.49265
C         31.62599        64.90930        -0.05445
C         32.67026        67.01195        -0.83073
C         31.52096        67.78405        -0.35908
C         32.79515        69.91658        -0.61682
C         31.55941        69.19684        -0.36415
C         32.82289        71.34804        -0.47055
C         31.65571        72.04565        -0.17299
C         32.87726        74.13669        -0.81210
C         31.66886        73.49760        -0.16845
C         35.38936        48.52218         1.06023
C         35.40047        49.92165         1.14208
C         34.21737        50.68563         1.20014
C         35.46929        52.82768         0.95205
C         34.21394        52.10582         1.11969
C         35.43129        54.26028         0.84546
C         34.22380        54.96069         0.74718
C         35.40252        57.09889         0.26341
C         34.19661        56.38140         0.45811
C         35.41310        58.47485        -0.04526
C         34.12300        59.14218        -0.30810
C         35.34912        61.41741        -0.32845
C         34.09276        60.65515        -0.47503
C         35.33669        62.79456        -0.37996
C         34.07724        63.49960        -0.42347
C         35.26938        65.63777        -0.91063
C         34.03384        64.90659        -0.61600
C         35.23180        67.00898        -1.09500
C         33.97637        67.78173        -1.13351
C         35.26164        69.90857        -0.69708
C         33.97485        69.22156        -0.89905
C         35.34017        71.36745        -0.70770
C         34.06322        72.12989        -0.84938
C         35.32562        74.14744        -0.06303
C         34.15787        73.53309        -0.32062
C         37.64524        44.12551        -0.00285
C         37.64286        45.63339        -0.11886
C         36.50141        46.37805         0.54023
C         37.90917        48.43700         0.84654
C         36.56122        47.72666         0.80706
C         37.75763        49.88799         0.33536
C         36.73003        50.64936         1.18798
C         37.90409        52.74072         0.47012
C         36.67003        52.11149         0.81878
C         37.95245        54.22390         0.50415
C         36.71225        54.99501         0.82423
C         37.90830        57.10061        -0.01022
C         36.71266        56.51311         0.71706
C         37.88958        58.53793        -0.11537
C         36.61923        59.21352        -0.04402
C         37.90534        61.45376        -0.08508
C         36.58258        60.68021        -0.00986
C         37.87465        62.83725        -0.53231
C         36.61570        63.60790        -0.20042
C         37.73434        65.56999        -1.26599
C         36.54809        64.94724        -0.89270
C         37.75151        67.01268        -1.56578
C         36.46449        67.75628        -1.38014
C         37.79594        69.89873        -1.02474
C         36.54576        69.14809        -0.87384
C         37.80312        71.27205        -0.73339
C         36.55331        71.98572        -0.51443
C         37.85835        74.12301        -0.34863
C         36.62132        73.37883         0.07771
C         40.13221        39.94129        -0.24241
C         40.14246        41.32916        -0.56525
C         38.92620        42.04752        -0.51264
C         39.81147        44.33774        -1.05332
C         38.73938        43.47685        -0.54189
C         40.13069        45.56818        -0.54757
C         39.03635        46.20318         0.29802
C         40.23466        48.43318        -0.28207
C         38.97887        47.69584         0.06401
C         40.26758        49.88147         0.05536
C         39.10212        50.59218         0.26798
C         40.35065        52.73409        -0.18734
C         39.09506        52.03115         0.29463
C         40.38691        54.24620         0.15364
C         39.06506        54.88863        -0.27424
C         40.31625        57.02733        -0.55182
C         39.10456        56.39203        -0.18989
C         40.22921        58.46139        -0.98812
C         39.09734        59.21719        -0.33682
C         40.38558        61.38310        -0.79947
C         39.16980        60.66834        -0.22202
C         40.23258        62.74452        -1.28477
C         39.03041        63.45359        -1.06287
C         40.20299        65.59253        -1.52728
C         39.00226        64.89022        -1.31132
C         40.22453        67.04531        -1.48814
C         39.01682        67.75753        -1.41215
C         40.22944        69.89450        -1.31180
C         39.00105        69.17573        -1.27539
C         40.23274        71.32398        -1.12862
C         39.04047        71.99896        -0.81831
C         40.27583        74.15324        -0.78343
C         39.03534        73.45109        -0.64142
C         42.43463        35.76890         1.06813
C         42.44372        37.07783         0.58298
C         41.26473        37.83073         0.36266
C         42.59247        39.88101        -0.02126
C         41.30775        39.19788        -0.00503
C         42.63222        41.28001        -0.29875
C         41.45488        41.95409        -0.71428
C         42.74459        44.06595        -0.92967
C         41.62831        43.25658        -1.21927
C         42.66488        45.52594        -0.92225
C         41.42233        46.23207        -0.73145
C         42.69354        48.32424        -0.64332
C         41.47774        47.64486        -0.53434
C         42.76920        49.77148        -0.32306
C         41.58605        50.55180         0.12389
C         42.79712        52.76681        -0.47435
C         41.65825        52.07824         0.26989
C         42.79116        54.15205        -0.67395
C         41.60360        54.92394        -0.44453
C         42.76457        57.01933        -1.06046
C         41.54885        56.30885        -0.70254
C         42.76019        58.42383        -1.23417
C         41.54517        59.18848        -1.08139
C         42.74781        61.29210        -1.54226
C         41.55024        60.56203        -1.20735
C         42.69767        62.65551        -1.80277
C         41.38474        63.39343        -2.01703
C         42.63805        65.59373        -1.82602
C         41.44637        64.89105        -1.72382
C         42.70309        67.03543        -1.74244
C         41.45502        67.76941        -1.57596
C         42.65717        69.94446        -1.91849
C         41.42833        69.17690        -1.53211
C         42.68140        71.38663        -1.47782
C         41.49028        72.04934        -1.20965
C         42.71968        74.19413        -1.10125
C         41.48592        73.48999        -1.02079
C         44.71704        33.17686         2.52301
C         43.56310        33.80515         2.07233
C         44.91588        35.66455         1.25831
C         43.63311        35.07277         1.44144
C         45.02562        36.97903         0.59895
C         43.74477        37.71727         0.27874
C         45.03835        39.87087         0.26989
C         43.79000        39.18511         0.18160
C         45.07031        41.28076         0.08105
C         43.87694        41.98008        -0.26286
C         45.16648        44.08734        -0.40695
C         43.92578        43.38561        -0.50659
C         45.21860        45.47602        -1.00364
C         43.90265        46.22929        -0.88319
C         45.18494        48.37691        -0.81664
C         43.91937        47.63112        -0.81949
C         45.19883        49.75025        -0.86860
C         43.93019        50.50103        -0.90042
C         45.23911        52.68117        -1.18489
C         43.94422        51.99002        -0.96195
C         45.21224        54.12382        -1.34734
C         44.00263        54.84395        -1.11500
C         45.22490        56.95723        -1.37271
C         43.99375        56.26664        -1.18833
C         45.23581        58.41190        -1.48730
C         43.98204        59.14187        -1.48712
C         45.20096        61.26677        -1.88629
C         43.98332        60.54441        -1.63684
C         45.23018        62.65550        -1.97724
C         43.94199        63.37570        -2.10165
C         45.18105        65.58823        -1.72769
C         43.91197        64.87748        -2.09333
C         45.20563        67.06022        -1.86744
C         43.92357        67.72076        -1.82856
C         45.18848        69.93790        -1.67138
C         43.91617        69.18520        -1.59642
C         45.14278        71.42158        -1.74524
C         43.93446        72.09513        -1.53438
C         45.17955        74.22098        -1.30591
C         43.93671        73.53261        -1.32917
C         45.97241        33.77852         2.35240
C         47.44663        35.61561         1.43879
C         46.07962        35.02424         1.71934
C         47.43638        37.11646         1.22855
C         46.25928        37.76731         0.81852
C         47.45159        39.91827         0.80417
C         46.24819        39.17310         0.60675
C         47.45141        41.32617         0.66348
C         46.28829        42.00983         0.26561
C         47.59048        44.14296         0.13857
C         46.32148        43.42722         0.00120
C         47.61261        45.56990        -0.16080
C         46.43548        46.25507        -0.54966
C         47.66630        48.39658        -0.62916
C         46.43476        47.65647        -0.65992
C         47.69006        49.78764        -0.82334
C         46.43015        50.56316        -0.59802
C         47.67823        52.56696        -1.59148
C         46.40120        51.95165        -1.20116
C         47.69592        54.07224        -1.81224
C         46.42745        54.81983        -1.58570
C         47.68748        56.97242        -1.76025
C         46.42387        56.22724        -1.55099
C         47.71770        58.40804        -1.28386
C         46.42961        59.09276        -1.62637
C         47.76587        61.26155        -2.10519
C         46.44356        60.50012        -2.02417
C         47.69422        62.72124        -1.97589
C         46.48492        63.37695        -1.98446
C         47.73188        65.61812        -1.84571
C         46.47539        64.84320        -1.72290
C         47.70255        67.04169        -1.91952
C         46.41868        67.73885        -1.95225
C         47.65296        69.98225        -2.19724
C         46.34322        69.21217        -2.32380
C         47.60215        71.40574        -1.77513
C         46.40186        72.11103        -1.68949
C         47.64424        74.23095        -1.30755
C         46.40549        73.54811        -1.43188
C         48.63658        37.83884         1.33784
C         49.91371        39.95513         1.09112
C         48.67794        39.22802         1.11370
C         49.95319        41.34362         0.98937
C         48.64838        42.09858         1.14867
C         49.96370        44.26653         0.97966
C         48.70799        43.51034         0.63151
C         50.03672        45.62249         0.34068
C         48.83938        46.28475        -0.02859
C         50.10999        48.35669        -0.33739
C         48.89431        47.67517        -0.37604
C         50.17597        49.73358        -0.86958
C         48.91921        50.50040        -1.02065
C         50.24144        52.58697        -1.58419
C         48.94280        51.85603        -1.29458
C         50.15970        54.08515        -1.30260
C         48.99735        54.76380        -1.59380
C         50.15803        57.00359        -1.25348
C         49.00842        56.23235        -1.73634
C         50.16467        58.38977        -1.31089
C         48.98970        59.12859        -1.64193
C         50.06342        61.28291        -1.13151
C         49.00302        60.56199        -1.65710
C         50.00667        62.79512        -0.99914
C         49.02781        63.42632        -1.99656
C         50.17171        65.63640        -1.72974
C         48.96469        64.93240        -1.83032
C         50.19398        67.06538        -1.81461
C         48.94246        67.74382        -1.97708
C         50.22534        69.97330        -1.93407
C         48.94215        69.21727        -2.14946
C         50.16733        71.33410        -1.33154
C         48.83427        72.06417        -1.31033
C         50.10896        74.17879        -1.08368
C         48.86361        73.53678        -1.23529
C         51.17175        42.06153         0.88827
C         52.45646        44.15312         0.67304
C         51.23769        43.46184         0.79072
C         52.51205        45.56965         0.53304
C         51.27252        46.28142         0.30160
C         52.53124        48.39044         0.15648
C         51.31852        47.68268         0.01366
C         52.42496        49.88695         0.29686
C         51.45837        50.48637        -0.72309
C         52.55117        52.68650        -0.62848
C         51.43706        51.95454        -0.90888
C         52.55982        54.13635        -0.73221
C         51.36684        54.80617        -0.95548
C         52.54979        57.01941        -0.54875
C         51.24206        56.24949        -0.51418
C         52.50379        58.39024        -0.46656
C         51.15005        59.06487        -0.34518
C         52.46251        61.36075        -0.30902
C         51.17912        60.58737        -0.46580
C         52.48073        62.79296        -0.70669
C         51.37065        63.45732        -1.10979
C         52.56903        65.69783        -1.00312
C         51.47648        64.87827        -1.64454
C         52.63615        67.07527        -1.25688
C         51.46003        67.76054        -1.72858
C         52.71919        69.98624        -1.40000
C         51.52830        69.22773        -1.83706
C         52.68457        71.38606        -1.29981
C         51.42105        72.10646        -1.28357
C         52.60246        74.33112        -1.05550
C         51.34481        73.49438        -1.10893
C         53.72540        46.29525         0.51330
C         54.98975        48.46288         0.44224
C         53.75086        47.70600         0.38563
C         55.02969        49.84111         0.35957
C         53.75935        50.61215         0.33123
C         55.08968        52.66590        -0.50269
C         53.78028        52.03995        -0.08545
C         55.02819        54.16649        -0.31308
C         53.80670        54.85212        -0.48582
C         55.02000        56.97203        -0.38446
C         53.79913        56.27948        -0.50403
C         55.04727        58.42259        -0.62732
C         53.73432        59.18853        -0.62472
C         54.95854        61.35373        -0.30538
C         53.76805        60.64731        -0.35382
C         54.97283        62.79217        -0.13113
C         53.70342        63.50883        -0.26381
C         54.99383        65.70359        -0.28763
C         53.70279        65.02680        -0.37095
C         55.02595        67.11278        -0.54806
C         53.87453        67.78366        -0.99334
C         55.23686        69.95217        -1.05123
C         54.00387        69.19237        -1.53692
C         55.17118        71.44735        -0.86233
C         53.88082        72.14308        -1.00625
C         55.00135        74.21863        -0.35109
C         53.85264        73.53184        -0.77001
C         56.24081        50.62195         0.41022
C         57.45070        52.77037         0.38079
C         56.27617        51.98788         0.15995
C         57.45380        54.16075         0.27222
C         56.22713        54.87190        -0.05349
C         57.42272        57.02864         0.25966
C         56.22382        56.28660        -0.09153
C         57.38005        58.40998         0.35697
C         56.30516        59.16430        -0.31449
C         57.34307        61.36090         0.51482
C         56.27842        60.66076        -0.26042
C         57.38600        62.81493         0.44566
C         56.14439        63.51776         0.15255
C         57.35632        65.67511         0.31861
C         56.13907        64.96512         0.06711
C         57.37760        67.10525         0.25079
C         56.25109        67.82858        -0.23755
C         57.41620        69.96121         0.18310
C         56.31809        69.23511        -0.35051
C         57.39741        71.40657         0.29177
C         56.26141        72.12394        -0.13725
C         57.38195        74.22256         0.39713
C         56.20301        73.53601        -0.00227
C         58.64732        54.93357         0.51750
C         59.95092        57.09368         0.57242
C         58.64753        56.30903         0.53406
C         59.81925        58.52836         1.10419
C         58.44017        59.15809         1.06023
C         60.30234        61.46055         0.15381
C         58.23902        60.61613         1.24696
C         60.03041        62.96960         0.43313
C         58.58434        63.51840         0.57817
C         59.67722        65.69613         1.06288
C         58.53577        64.96059         0.63209
C         59.70085        67.10607         1.07926
C         58.55013        67.81916         0.62565
C         59.67170        69.92992         1.19474
C         58.54851        69.23839         0.64624
C         59.58843        71.32792         1.42130
C         58.49401        72.10423         0.90043
C         59.76707        74.31887         1.00405
C         58.52430        73.54381         0.82072
C         61.09641        59.29864         1.17856
C         62.67765        61.18437         0.98261
C         61.32940        60.61418         0.88667
C         62.86909        62.44530         1.52182
C         60.84928        63.60660         1.52629
C         61.89079        65.70556         2.17686
C         60.75547        64.99217         1.69192
C         62.04691        67.08303         1.93400
C         60.87307        67.80016         1.51926
C         61.99259        69.91049         2.09433
C         60.84126        69.21801         1.60282
C         61.88405        71.30295         2.38279
C         60.62111        71.87682         2.23345
C         62.05424        74.60902         2.19490
C         60.68742        74.04064         1.95417
C         63.96516        63.34125         1.47082
C         64.79925        65.71107         1.73097
C         63.92418        64.66999         1.98765
C         64.61120        67.11812         2.07261
C         63.29781        67.79045         2.13290
C         64.42862        70.01996         2.38675
C         63.21754        69.18328         2.25928
C         64.32509        71.36321         3.05940
C         62.97051        72.12704         3.07831
C         64.36266        74.21034         2.77354
C         63.15759        73.59738         2.59272
C         65.76185        67.88075         2.16998
C         66.97769        70.06225         2.73130
C         65.76539        69.34111         2.29355
C         66.93356        71.40100         2.99492
C         65.62576        72.08832         3.20572
C         66.79048        74.24906         3.23208
C         65.60636        73.56259         3.12841
C         68.11923        72.19620         3.22837
C         68.04003        73.55265         3.37223
O         39.17496        48.11802        -1.30120
O         43.59554        51.14836        -2.17667
O         28.12321        69.71279        -0.80826
O         59.83124        60.99887        -0.87528
O         55.71604        70.83454        -2.12677
O         49.38145        71.38009        -0.09688
O         36.98065        67.51046        -2.72858
O         24.40230        70.05273         1.13255
O         51.17953        49.78148        -1.96615
O         44.51434        37.02963        -0.77758
O         64.94667        71.45000         4.38091
O         35.97453        69.29201         0.46960
O         54.43820        58.83281        -1.88072
O         53.74217        51.70625         1.33809
O         33.82460        72.49725        -2.29212
O         56.76051        59.98404        -1.46764
O         33.07703        67.33641        -2.20026
O         65.15456        70.05929         1.10875
O         51.04665        69.84955        -3.11296
O         37.68718        54.63934         1.88005
O         62.83655        64.97975         2.85708
O         37.23989        61.23076         1.21218
O         26.11421        68.40159         0.10717
O         34.03479        59.75867        -1.64549
O         51.57449        61.16873         0.84204
O         45.74705        65.12931        -0.45337
O         60.35427        73.06580         2.91393
O         58.97538        58.55023         2.30774
O         61.73245        62.93214         2.27390
O         48.39293        56.71577        -2.99220
O         50.47505        58.74140         0.85401
O         43.90288        64.18717        -3.38789
O         47.15328        60.71718        -3.31134
O         44.67335        69.49119        -0.37156
O         40.19904        61.21372         0.67336
O         47.67233        53.15483        -2.95991
O         42.52082        49.95482         1.12183
O         48.41807        69.73580        -3.44195
O         53.36961        64.33730         0.90651
O         40.62768        43.77890        -2.04732
O         32.89881        73.67769        -2.22107
O         41.13201        63.29682        -3.45894
H         41.94038        63.64590        -3.90472
O         42.64443        69.98663        -3.38870
H         41.80753        70.41192        -3.67174
O         58.98429        61.16573         2.24283
H         59.37386        60.40891         2.74891
O         41.87414        52.32992         1.68038
H         42.41608        51.57719         2.02164
O         48.37707        35.25796         2.46669
H         48.06196        35.63701         3.31224
O         55.21795        52.42338        -1.93408
H         56.01967        52.88860        -2.25221
O         62.49082        75.36870         1.06464
H         62.65872        74.75818         0.31809
O         49.59773        63.15470        -3.30447
H         48.94955        63.41415        -3.99174
O         45.43871        45.26564        -2.44299
H         44.65257        44.79600        -2.79487
O         62.55184        72.25129         4.45152
H         63.37194        72.19982         5.00069
O         50.45491        52.49270        -3.02554
H         49.60062        52.74093        -3.45393
O         48.45599        42.21418         2.62059
H         48.47332        41.30211         2.98342
O         37.18769        49.85442        -0.98648
H         37.78610        49.29993        -1.54690
O         49.53120        63.08430         0.33619
H         50.11261        62.58876         0.96241
O         60.49795        57.13271        -0.75436
H         59.86958        57.60288        -1.34105
O         45.97422        69.22620        -3.73273
H         46.81659        69.18780        -4.24576
O         60.52268        63.58578        -0.79973
H         60.13414        63.07006        -1.54287
O         39.79726        58.37721        -2.42127
H         38.94271        57.89325        -2.43970
O         40.38007        52.55631        -1.62348
H         39.54801        52.93807        -1.99167
O         39.29997        45.92525         1.67941
H         38.96435        46.68156         2.22094
O         38.76728        54.61553        -1.67727
H         39.41382        55.11361        -2.22310
O         36.68379        63.92015         1.23393
H         36.87762        63.06296         1.68815
O         46.38987        50.82687         0.86716
H         46.51960        49.96882         1.32641
O         37.52552        45.93763        -1.54432
H         36.65058        45.62127        -1.85111
O         51.77003        50.09504         1.58305
H         52.23847        50.84809         2.01927
O         52.45747        75.40559        -0.11921
H         52.28221        75.02086         0.76379
O         54.16351        68.98840        -2.97566
H         54.64505        69.78142        -3.31241
O         26.40619        69.33837         4.10487
H         26.15531        68.93152         4.96080
O         50.78942        56.14823         0.86779
H         50.65446        57.10036         1.17470
O         36.79214        73.15224         1.52478
H         37.57584        72.57390         1.64304
O         40.42656        54.47590         1.57429
H         41.13231        53.90788         1.96550
O         51.97425        64.70671        -3.02385
H         51.92930        65.58194        -3.46632
O         37.16802        50.66202         2.58685
H         36.58261        51.27561         3.07968
O         49.88405        44.54075         2.42447
H         49.47077        43.74617         2.84410
O         38.39282        48.40826         2.21347
H         37.89561        49.08766         2.73584
O         47.79182        58.39479         0.18432
H         48.74700        58.54413         0.48872
O         36.85447        57.02416         2.08215
H         37.52064        56.44380         2.52171
O         24.71630        70.74514        -0.09953
H         25.09396        70.02082        -0.66217
H         24.34984        75.26977         4.30765
H         26.42099        75.28750         2.93340
H         28.50812        75.28309         1.62756
H         30.60876        75.29238         0.33733
H         32.83811        75.25024        -0.81148
H         35.35182        75.23350         0.12321
H         37.88519        75.21555        -0.21321
H         40.27711        75.24704        -0.66235
H         42.71911        75.28455        -0.95246
H         45.18210        75.30455        -1.11362
H         47.64235        75.32679        -1.20856
H         50.13069        75.27330        -0.97514
H         52.73457        74.81641        -2.06471
H         54.94921        75.31021        -0.23097
H         57.39464        75.32140         0.35156
H         59.94585        75.15362         0.30988
H         61.96502        75.33649         3.04889
H         64.42404        75.29168         2.56629
H         66.79704        75.34668         3.16477
H         23.35829        69.40562         4.45399
H         22.29079        71.55423         5.10969
H         22.46297        74.02139         5.33749
H         25.05432        65.07690         2.62793
H         24.27945        67.25334         3.61757
H         27.20493        60.82524         1.44996
H         26.07023        62.96742         1.91306
H         29.58681        56.55277         1.03318
H         28.38283        58.68358         1.14624
H         32.06166        52.29712         1.25808
H         30.82307        54.41535         1.09671
H         34.41370        48.00899         1.05204
H         33.24847        50.16303         1.23010
H         36.81433        43.57534         0.46384
H         35.51868        45.87624         0.56940
H         39.16050        39.43493        -0.13381
H         38.03444        41.45732        -0.24268
H         41.46883        35.27634         1.25861
H         40.28725        37.34243         0.49545
H         44.64878        32.19594         3.01398
H         42.58253        33.32820         2.21305
H         46.88345        33.27173         2.70009
H         47.83255        35.14181         0.49236
H         49.56035        37.29961         1.59350
H         50.85616        39.38610         1.09574
H         52.11194        41.48576         0.88252
H         53.39652        43.57919         0.65000
H         54.67340        45.75585         0.66186
H         55.93383        47.90136         0.51674
H         57.17020        50.11343         0.71401
H         58.36585        52.26033         0.72089
H         59.59120        54.38988         0.67771
H         60.69730        56.55206         1.20839
H         61.95209        58.70681         1.54576
H         63.53083        60.59387         0.62090
H         64.82674        63.05788         0.85107
H         65.74101        65.46704         1.21746
H         66.73765        67.37299         2.13574
H         67.94003        69.52829         2.71843
H         69.09531        71.68982         3.24299
H         68.95550        74.14290         3.51760
