         294
 CSIRO Nanostructure Databank - Neutral Graphene Oxide Data Set
C          1.70259         2.43063         2.12781
C          1.55225         3.72245         1.61176
C          2.83559         1.68154         1.83381
C          2.53859         4.28164         0.78483
C          1.24078         6.49173         0.60310
C          1.28546         7.83862         0.50021
C          2.34323         5.61901         0.13766
C          2.37343         8.56718        -0.12432
C          1.61801        10.69716         0.88155
C          1.57934        12.04455         0.91889
C          2.44845         9.94298        -0.05122
C          2.19636        12.88975        -0.17372
C          1.12259        15.18286         0.15048
C          1.19054        16.53672         0.20725
C          2.33392        14.34333         0.26234
C          2.46076        17.23145         0.24358
C          2.51383        18.69718         0.31202
C          3.85825         2.22011         1.02457
C          3.69488         3.52615         0.49140
C          5.06803         1.44993         0.80000
C          4.77704         4.10323        -0.33969
C          3.49106         6.28819        -0.57642
C          3.42675         7.79627        -0.91826
C          4.80681         5.58477        -0.55072
C          4.75682         8.51314        -0.69296
C          3.51200        10.71055        -0.77687
C          3.49842        12.21485        -0.70839
C          4.80964         9.96963        -1.16362
C          4.85720        12.96125        -0.81171
C          3.65827        15.05400         0.20537
C          3.63547        16.52183         0.15349
C          4.91340        14.31906        -0.09573
C          4.93455        17.27646         0.25754
C          3.64267        19.38039         0.03396
C          4.84886        18.62209        -0.48884
C          6.16409         1.97810         0.17786
C          6.06250         3.33050        -0.41882
C          7.40993         1.25378        -0.05838
C          7.36149         4.04457        -0.75657
C          5.98654         6.24471        -0.68797
C          6.01896         7.72922        -0.63838
C          7.31846         5.55732        -0.42677
C          7.31809         8.42781        -0.74476
C          6.05892        10.70731        -0.71820
C          6.07949        12.06609        -0.53411
C          7.32021         9.92107        -0.77705
C          7.33627        12.76191        -0.23665
C          6.11114        14.95358         0.12994
C          6.18431        16.48415        -0.15047
C          7.32527        14.13378         0.12994
C          7.35601        17.37995         0.25596
C          6.15443        19.37565        -0.49369
C          7.37126        18.74313        -0.22110
C          8.57563         1.89685        -0.32582
C          8.61068         3.39250        -0.10138
C          9.84908         1.14332        -0.62066
C          9.86046         4.11981        -0.58450
C          8.52288         6.25557        -1.10124
C          8.48736         7.72961        -0.76521
C          9.83334         5.52537        -0.75841
C          9.75186         8.36105        -0.34029
C          8.60515        10.62857        -0.46027
C          8.57656        12.07687        -0.16805
C          9.76191         9.80271         0.01555
C          9.80519        12.75345         0.02771
C          8.52546        14.64765         0.64871
C          8.54300        16.88711         0.76041
C          9.79429        14.10118         0.43705
C          9.80913        17.37331         0.38073
C          8.64780        19.40481        -0.30485
C          9.85686        18.71138        -0.12982
C         11.11409         1.96616        -0.50484
C         11.08806         3.42036        -0.66174
C         12.30209         1.31711        -0.30799
C         12.30743         4.12004        -0.87644
C         11.06055         6.22052        -0.81951
C         11.04454         7.70659        -0.69034
C         12.29637         5.52435        -0.86900
C         12.30203         8.43633        -0.34711
C         11.03556        10.52745         0.35445
C         11.06424        12.00345         0.23149
C         12.31673         9.69244         0.51274
C         12.35531        12.71196         0.32525
C         11.03143        14.95180         0.57635
C         10.94443        16.43538         0.15590
C         12.33318        14.21626         0.36839
C         12.21714        17.13199        -0.26149
C         11.14918        19.32714        -0.42132
C         12.30479        18.60536        -0.41047
C         13.58163         1.98060        -0.42377
C         13.56237         3.30295        -1.17947
C         14.73538         1.31479        -0.09221
C         14.86935         4.08406        -1.04691
C         13.54435         6.36800        -1.12917
C         13.56471         7.61651        -0.22480
C         14.86981         5.58582        -0.98358
C         14.77348         8.51250        -0.51908
C         13.59680        10.52745         0.33098
C         13.42970        11.94198         0.75511
C         14.75148         9.96561        -0.15529
C         15.06871        12.98666        -0.75717
C         13.54315        14.94546        -0.17870
C         13.53557        16.42097        -0.19592
C         14.87388        14.29144        -0.06697
C         14.61559        17.24882         0.52593
C         13.64015        19.13354        -0.93739
C         14.86613        18.54014        -0.23901
C         16.05777         1.89574        -0.17199
C         16.17493         3.24617        -0.88537
C         17.18794         1.23861         0.23485
C         17.28653         3.96353        -0.05716
C         16.09529         6.29414        -0.36901
C         16.09966         7.79794        -0.57795
C         17.44685         5.68909        -0.82530
C         17.31777         8.50006        -0.10189
C         16.09131        10.65390        -0.56197
C         16.17843        12.14141        -0.24546
C         17.29736         9.85856        -0.03680
C         17.27538        12.78302         0.22249
C         15.94551        14.96329         0.42036
C         15.89726        16.39345         0.81046
C         17.24856        14.23940         0.67600
C         17.22662        17.17548         0.90988
C         16.04889        19.17516        -0.13191
C         17.08618        18.70928         0.90204
C         18.51656         1.91439         0.53513
C         18.64143         3.32129        -0.20710
C         19.81184         1.19820         0.22968
C         19.77536         4.14539         0.42115
C         18.60719         6.28333        -0.19925
C         18.49561         7.66458         0.44229
C         19.94041         5.56896        -0.30410
C         19.87529         8.38661         0.14902
C         18.61126        10.61130        -0.06936
C         18.57530        12.06011         0.48871
C         19.80718         9.87327         0.58494
C         19.76977        12.87461        -0.13909
C         18.41000        15.04816         0.03474
C         18.43057        16.50915         0.44825
C         19.77329        14.34028         0.36612
C         19.56175        17.30740        -0.13394
C         18.41737        19.38037         0.74770
C         19.57103        18.75073         0.34735
C         20.97349         1.89413         0.19557
C         21.06049         3.34362         0.33777
C         22.23601         4.02784         0.41901
C         21.13885         6.23281         0.38000
C         21.04370         7.66614         0.87313
C         22.22691         5.46496         0.63743
C         22.31225         8.49829         0.79372
C         21.12133        10.62282         0.29742
C         21.11167        12.13206         0.08844
C         22.33012         9.83877         0.68605
C         22.27434        13.01865         0.38211
C         20.99875        15.12586        -0.19055
C         20.94155        16.61807         0.25803
C         22.23206        14.36181         0.28714
C         22.05839        17.44476        -0.29847
C         20.80101        19.45788         0.23727
C         21.98034        18.81500        -0.20235
O         11.32086        16.54452        -1.26348
O          3.11820        11.51475        -1.94075
O          3.08009        14.52617         1.50359
O         10.82225        11.27805         1.59972
O         15.45966         8.24717        -1.78465
O         11.92720        14.72881         1.70617
O         21.31877        11.19679        -1.03218
O          8.47067        15.72692         1.52133
O         14.10305        17.59062         1.76986
O         11.76579         8.53966        -1.67897
O          2.47430         5.55282        -1.33746
O         16.53634        16.62119         2.08932
O         15.09577         4.91807        -2.24579
O          5.11674         3.33926        -1.55660
O         16.57546         2.95272        -2.18713
O         14.40849        12.64750        -1.73948
O          5.31782         8.25350         0.61537
O          8.23923        10.36646        -1.85350
O         13.65222        15.68573        -1.46859
O          9.53338         8.79753         1.06877
O         20.32204         5.35242        -1.66015
H         19.52626         5.05486        -2.16454
O          7.48360         5.74442         1.00873
H          7.42833         6.70684         1.20083
O         17.62292         5.34545        -2.15643
H         17.01924         4.58104        -2.43380
O         13.44564         6.80834        -2.48584
H         13.84822         6.10708        -3.04824
O         19.93452        14.29394         1.78731
H         20.15175        15.20883         2.10185
O         18.14569        15.07230        -1.39132
H         18.49993        14.24111        -1.79762
O         16.17701        10.61171        -2.01405
H         15.42550        11.15968        -2.35902
O         16.93140         4.02630         1.25654
H         17.72545         4.32450         1.78118
O         18.85382        10.60670        -1.51196
H         17.97211        10.64727        -1.97350
O          6.34364        16.42830        -1.59291
H          5.62689        16.95166        -2.02883
O         12.31619         9.25166         1.89736
H         11.81926         9.94165         2.40614
O         20.16856         8.28084        -1.24180
H         19.74107         9.03509        -1.71487
O         18.26231         7.59507         1.86718
H         19.04942         7.14064         2.26870
O          8.40336         6.24086        -2.53662
H          8.34739         5.29555        -2.82225
O         13.62618         7.12122         1.13658
H         13.24762         7.80673         1.74661
O         20.99942        16.70965         1.71090
H         21.93890        16.70917         1.98929
O         19.01932         3.06997        -1.54705
H         18.19288         2.77979        -2.04711
O          8.60539         3.48534         1.34137
H          8.52324         4.43450         1.59665
O          1.22168        12.92451        -1.23932
H          1.46348        12.20174        -1.86943
O         19.60973        12.95858        -1.57247
H         19.84423        12.05752        -1.92792
O         13.47058         2.91401        -2.57870
H         14.39516         2.75915        -2.88520
O          9.78475         0.62061        -1.96612
H          9.85007         1.37395        -2.58913
O          3.11293         7.89180        -2.32623
H          2.51149         7.13641        -2.53012
O          5.09651        17.60355         1.66416
H          4.84364        16.81899         2.19507
O         18.74080        11.97503         1.90119
H         18.56342        12.86924         2.28816
O          4.53351        18.32766        -1.89755
H          4.54518        19.17236        -2.39494
O         16.07126         6.15911         1.06417
H         15.20664         6.50966         1.39926
O         18.50431         2.08508         1.98178
H         17.56925         2.13802         2.27656
O         17.38053        14.17924         2.11474
H         17.20375        15.09010         2.47310
O          4.99488        13.33354        -2.20758
H          4.78689        12.52976        -2.73803
O         20.80637         7.52921         2.30918
H         20.70278         8.45214         2.65665
O         21.02888        15.16631        -1.62338
H         20.86620        14.25217        -1.95867
O         19.48366         4.45574         1.80130
H         19.68788         3.65355         2.33658
O         13.68017        18.79833        -2.33493
H         13.52676        17.83282        -2.42941
O         14.38098        12.42833         1.59076
H         14.08898        13.28422         1.97114
O         19.69459         9.84427         2.02034
H         18.82863         9.42553         2.24556
O          7.55554         3.84726        -2.17732
H          6.65687         3.71538        -2.56830
O         19.46952        17.38602        -1.56572
H         19.15980        16.50636        -1.89707
O         16.52946        19.13012         2.16259
H         15.65847        18.65485         2.26959
O          4.90641         9.93421        -2.60258
H          4.15755         9.38866        -2.93997
H          0.91374         2.00777         2.76483
H          0.63873         4.28259         1.84994
H          2.95004         0.66775         2.24276
H          0.35780         6.02640         1.06244
H          0.43246         8.41634         0.88336
H          1.06102        10.13280         1.64336
H          0.97222        12.55194         1.68286
H          0.15763        14.67969        -0.00192
H          0.27064        17.13755         0.15291
H          1.59658        19.23012         0.60560
H          5.11130         0.43352         1.21903
H          3.66376        20.48011         0.07159
H          7.37399         0.15307        -0.04463
H          6.14619        20.43014        -0.81448
H          9.91908         0.25113         0.05491
H          8.67408        20.45439        -0.63407
H         12.29795         0.23701        -0.09044
H         11.16481        20.40130        -0.66142
H         14.65272         0.30134         0.33553
H         13.66842        20.24978        -0.86732
H         17.08290         0.21459         0.63233
H         16.19678        20.16522        -0.59194
H         19.80954         0.10527         0.10658
H         18.46610        20.43900         1.04939
H         21.92147         1.35659         0.03468
H         23.19885         3.49522         0.41226
H         23.13296         5.91315         1.07323
H         23.26121         7.97678         0.99625
H         23.29594        10.36797         0.70903
H         23.21943        12.53177         0.67107
H         23.14928        14.93762         0.49560
H         22.92917        16.95810        -0.76142
H         20.81302        20.54131         0.42922
H         22.84449        19.43277        -0.48953
