         600
 CSIRO Nanostructure Databank - Neutral Graphene Oxide Data Set
C         23.18512        27.19192        -1.51723
C         23.24067        28.45813        -2.06786
C         23.17356        32.14016        -1.57503
C         23.09400        33.29356        -0.82320
C         23.02600        35.93260         0.42054
C         23.01594        37.27726         0.70860
C         23.00399        40.19765         1.07823
C         23.00090        41.56441         1.17849
C         23.00690        44.50313         1.27716
C         23.02170        45.87648         1.24476
C         25.47445        24.59719        -0.20709
C         24.32596        25.25401        -0.53919
C         25.56570        27.37136        -0.88443
C         24.35313        26.62365        -0.96248
C         25.58057        28.73807        -1.30378
C         24.43428        29.19751        -1.96600
C         25.56377        31.87573        -1.01968
C         24.41568        31.48608        -1.70792
C         25.51127        33.15726        -0.38775
C         24.27206        33.86530        -0.28274
C         25.46591        35.91178         0.39616
C         24.24600        35.22286         0.21099
C         25.46187        37.33306         0.62020
C         24.22122        38.03737         0.76377
C         25.44998        40.18780         0.93225
C         24.21918        39.45773         0.94048
C         25.45978        41.60425         1.05832
C         24.21437        42.32638         1.17854
C         25.50433        44.46806         1.52083
C         24.20874        43.73493         1.26265
C         25.48400        45.91835         1.11204
C         24.25692        46.61001         1.10628
C         25.43764        48.70458         0.75841
C         24.25020        48.01268         0.90997
C         27.97877        23.10469         0.02543
C         27.95555        24.55018        -0.05214
C         26.74262        25.26803        -0.23676
C         27.99836        27.37655        -0.43115
C         26.77345        26.68055        -0.48874
C         28.06654        28.82241        -0.77411
C         26.84241        29.56248        -1.24389
C         28.00944        31.71467        -0.35608
C         26.88989        31.14610        -1.24657
C         27.96888        33.07506         0.01847
C         26.72633        33.81159         0.00713
C         27.93284        35.89740         0.52500
C         26.70239        35.18868         0.32308
C         27.92814        37.32031         0.58226
C         26.68357        38.04558         0.63002
C         27.89703        40.19501         0.64505
C         26.68776        39.47825         0.74701
C         27.91815        41.60669         0.73388
C         26.69891        42.32368         0.96870
C         27.93322        44.45160         0.85225
C         26.73262        43.73686         1.05609
C         27.94782        45.89207         0.82151
C         26.70089        46.61656         0.90691
C         27.93932        48.75037         0.62398
C         26.68339        48.03103         0.75553
C         27.97911        50.15748         0.61126
C         30.40490        23.09932         0.42113
C         29.12298        22.40855         0.23396
C         30.42139        24.55725         0.20000
C         29.19113        25.25642         0.00655
C         30.43356        27.39563        -0.01021
C         29.19828        26.68219        -0.14087
C         30.42195        28.84033         0.00637
C         29.25248        29.56476        -0.28174
C         30.38839        31.64478         0.38446
C         29.21303        30.97906        -0.12179
C         30.37854        33.06064         0.59674
C         29.16740        33.75985         0.43696
C         30.37812        35.89764         0.79457
C         29.15750        35.18700         0.59549
C         30.37338        37.32377         0.74677
C         29.15569        38.01648         0.59330
C         30.41052        40.19438         0.55561
C         29.14403        39.46967         0.22031
C         30.40138        41.59686         0.57437
C         29.15453        42.32273         0.62680
C         30.39955        44.45671         0.54451
C         29.16369        43.73582         0.66365
C         30.39983        45.87378         0.50741
C         29.16041        46.59049         0.61730
C         30.39953        48.73457         0.40280
C         29.16556        48.02897         0.54356
C         30.40032        50.15078         0.38876
C         29.18861        50.83893         0.51794
C         32.94043        20.32694        -0.50170
C         31.80131        20.90684        -0.05163
C         32.95400        23.13656         0.00184
C         31.75053        22.33787         0.28567
C         32.90287        24.54774         0.14473
C         31.64498        25.25433         0.20190
C         32.88092        27.41503         0.27872
C         31.64099        26.69042         0.16185
C         32.86294        28.82141         0.42838
C         31.61979        29.53601         0.36521
C         32.78223        31.57679         1.23040
C         31.58101        30.92157         0.59724
C         32.81486        33.07300         1.09639
C         31.60507        33.76713         0.91717
C         32.82361        35.90086         1.23546
C         31.60721        35.19323         0.97186
C         32.82419        37.34900         1.11752
C         31.61762        38.04232         0.83296
C         32.85321        40.18033         0.74755
C         31.62023        39.46862         0.70793
C         32.86566        41.59672         0.61296
C         31.63778        42.31571         0.57427
C         32.87388        44.43224         0.36476
C         31.63801        43.73621         0.49477
C         32.87380        45.86111         0.22589
C         31.63493        46.58972         0.33574
C         32.87177        48.70799         0.04454
C         31.63965        48.00073         0.28591
C         32.89183        50.11358        -0.05714
C         31.69758        50.92735         0.37902
C         32.76003        52.84373        -0.79881
C         31.63073        52.23552        -0.36753
C         35.49810        19.04475        -1.33099
C         35.34027        20.47161        -1.16380
C         34.17654        21.06780        -0.67686
C         35.38145        23.22325        -0.32311
C         34.15949        22.48716        -0.36330
C         35.34650        24.59418        -0.00015
C         34.12034        25.28798         0.11737
C         35.34586        27.45152         0.25711
C         34.11777        26.71642         0.25050
C         35.33115        28.86675         0.37639
C         34.09134        29.55433         0.53850
C         35.29283        31.65951         0.95793
C         34.08024        30.93632         0.82030
C         35.27493        33.02656         1.37773
C         34.03772        33.76004         1.36160
C         35.23569        35.91649         1.90905
C         34.01511        35.18424         1.50271
C         35.26802        37.41664         1.65293
C         34.03961        38.07618         1.17857
C         35.32503        40.17193         0.86255
C         34.07479        39.46682         0.92643
C         35.33602        41.57148         0.62268
C         34.10961        42.29550         0.53993
C         35.34273        44.41454         0.22187
C         34.10319        43.71279         0.37635
C         35.33253        45.81698        -0.05895
C         34.08334        46.54153        -0.02757
C         35.27915        48.65522        -0.48787
C         34.08444        47.97089        -0.17272
C         35.29621        50.05829        -0.62110
C         34.07804        50.79483        -0.43619
C         35.26025        52.87995        -1.04940
C         34.05167        52.19457        -0.72967
C         35.27817        54.27051        -1.32874
C         37.76229        19.23819        -2.45758
C         36.63067        18.46921        -1.80186
C         37.79975        20.69601        -1.98069
C         36.53785        21.30998        -1.41626
C         37.84861        23.25598        -0.62958
C         36.63262        22.59851        -0.70261
C         37.90176        24.60040        -0.02524
C         36.59922        25.31721         0.23545
C         37.80882        27.49736         0.10955
C         36.59915        26.78306         0.20039
C         37.80164        28.91797         0.21887
C         36.55728        29.59414         0.40535
C         37.77471        31.68380         0.78450
C         36.53505        30.98598         0.68809
C         37.79554        32.94179         1.45215
C         36.54723        33.64608         1.80815
C         37.78368        36.00898         2.01470
C         36.54441        35.18792         2.09953
C         37.78681        37.38191         1.63865
C         36.55455        38.10676         1.41759
C         37.85955        40.11393         0.69318
C         36.54858        39.44079         1.02268
C         37.80399        41.62071         0.67671
C         36.59024        42.29167         0.53452
C         37.80144        44.42072         0.13725
C         36.57326        43.71610         0.30503
C         37.78386        45.81209        -0.21996
C         36.54231        46.48227        -0.33717
C         37.77931        48.63695        -0.78666
C         36.49100        47.86931        -0.91382
C         37.76784        50.03999        -0.95014
C         36.52079        50.76010        -0.91104
C         37.73775        52.87446        -1.31944
C         36.50927        52.16406        -1.07938
C         37.70352        54.26526        -1.57703
C         36.46488        54.93091        -1.60538
C         40.33025        16.45776        -2.72792
C         39.13420        17.15640        -2.68930
C         40.30153        19.21669        -2.10967
C         39.09825        18.52488        -2.35830
C         40.30625        20.62839        -1.76423
C         39.08877        21.33341        -1.62063
C         40.32475        23.31607        -0.86772
C         39.09196        22.64657        -1.07334
C         40.38417        24.65188        -0.15540
C         39.10351        25.42345        -0.20640
C         40.29917        27.56888        -0.18349
C         39.06930        26.79712        -0.07834
C         40.28148        28.96439        -0.03021
C         39.03192        29.65824         0.19632
C         40.26207        31.87598         0.34985
C         39.00668        31.03877         0.46460
C         40.28204        33.04353         1.30986
C         39.06612        33.37752         1.90569
C         40.28032        36.00624         1.94957
C         39.03758        35.43973         2.31589
C         40.25201        37.42398         1.80012
C         39.02965        38.08832         1.66432
C         40.23815        40.38249         1.68392
C         38.98359        39.57059         1.55363
C         40.23863        41.73287         1.07474
C         39.04522        42.34435         0.66985
C         40.26170        44.46035         0.18381
C         39.03744        43.74798         0.32749
C         40.24943        45.83091        -0.23632
C         39.01616        46.51021        -0.43202
C         40.22019        48.63927        -0.89876
C         39.00013        47.93192        -0.71297
C         40.24046        50.03615        -1.08370
C         39.00096        50.75865        -1.09728
C         40.23125        52.89023        -1.37905
C         38.98719        52.16390        -1.29089
C         40.23002        54.28572        -1.54028
C         38.96759        55.00275        -1.96131
C         40.14596        57.13049        -1.41583
C         38.98436        56.46091        -1.56910
C         42.79197        16.41871        -2.52233
C         41.54914        17.12099        -2.46775
C         42.78773        19.19232        -1.94247
C         41.54394        18.51396        -2.16687
C         42.79302        20.59389        -1.65229
C         41.54415        21.29650        -1.53653
C         42.79908        23.38741        -1.02185
C         41.54455        22.67091        -1.15380
C         42.79765        24.78238        -0.78082
C         41.57830        25.48215        -0.52428
C         42.74936        27.67621        -0.78396
C         41.52531        26.86715        -0.44758
C         42.76494        29.03240        -0.11131
C         41.53722        29.70281         0.07827
C         42.73454        31.75412         0.73591
C         41.53239        31.07260         0.44813
C         42.72806        33.15576         1.12690
C         41.48594        33.82315         1.45243
C         42.72656        35.96943         1.59392
C         41.49309        35.23167         1.75030
C         42.77204        37.39930         1.65499
C         41.53249        38.14705         1.93200
C         42.80917        40.30337         1.48615
C         41.54695        39.66584         1.91237
C         42.81564        41.76424         1.33741
C         41.46422        42.51830         1.13685
C         42.73205        44.49334         0.28379
C         41.50211        43.83571         0.49183
C         42.72422        45.84640        -0.21308
C         41.49604        46.49050        -0.45176
C         42.77646        48.62380        -1.08148
C         41.46559        47.86089        -0.98589
C         42.73476        50.09346        -1.06748
C         41.49369        50.76476        -1.15950
C         42.70926        52.91106        -1.24291
C         41.48072        52.18859        -1.24671
C         42.69748        54.33956        -1.32707
C         41.44870        55.02068        -1.45823
C         42.63113        57.15935        -1.37360
C         41.42516        56.44811        -1.44629
C         43.97616        17.07013        -2.29916
C         45.25490        19.15560        -1.78229
C         44.01256        18.47037        -2.00824
C         45.26048        20.55443        -1.51950
C         44.02322        21.27843        -1.45506
C         45.27233        23.39193        -1.07429
C         44.03360        22.69053        -1.19375
C         45.28601        24.79305        -0.85377
C         44.03826        25.52172        -0.74951
C         45.29964        27.68748        -0.69823
C         44.02534        26.90054        -0.61250
C         45.24705        29.02039        -0.00136
C         43.99078        29.69574         0.14862
C         45.20684        31.72705         0.85241
C         43.97165        31.05423         0.60454
C         45.20389        33.12209         1.14672
C         43.95539        33.83734         1.25436
C         45.18107        35.98413         1.47026
C         43.95558        35.26631         1.43694
C         45.21500        37.39678         1.42245
C         43.97685        38.11348         1.48101
C         45.22614        40.25058         1.03701
C         43.98050        39.56569         1.34631
C         45.22208        41.66373         0.79736
C         44.01618        42.42822         0.83861
C         45.21443        44.47381         0.18846
C         43.98010        43.79031         0.46269
C         45.21288        45.87040        -0.11944
C         43.97568        46.56248        -0.35324
C         45.21774        48.68324        -0.65620
C         44.00413        47.93414        -0.66576
C         45.20977        50.09802        -0.86599
C         43.95959        50.80575        -1.00609
C         45.19111        52.95292        -1.11705
C         43.95429        52.22274        -1.11452
C         45.18102        54.37269        -1.20808
C         43.91550        55.08208        -1.28624
C         43.85249        56.49157        -1.32135
C         47.69152        19.11084        -1.59772
C         46.50351        18.46268        -1.81388
C         47.73442        20.51582        -1.33869
C         46.50146        21.23598        -1.30402
C         47.74242        23.31309        -0.90136
C         46.52009        22.65458        -1.10860
C         47.81491        24.81078        -0.94817
C         46.50921        25.50111        -0.67062
C         47.72336        27.52423         0.03117
C         46.52446        26.86915        -0.39100
C         47.69296        28.89096         0.38667
C         46.44545        29.63151         0.38294
C         47.66235        31.68428         1.05645
C         46.43821        31.01374         0.78738
C         47.65686        33.07528         1.33695
C         46.44054        33.77849         1.38044
C         47.74875        35.99756         1.53719
C         46.42710        35.23079         1.65265
C         47.68677        37.41588         1.17320
C         46.46318        38.10349         1.21662
C         47.66588        40.19666         0.62414
C         46.44286        39.52477         0.95675
C         47.64453        41.59834         0.45477
C         46.44580        42.34084         0.53655
C         47.66106        44.48080         0.15294
C         46.44054        43.76715         0.29317
C         47.65720        45.85277        -0.07921
C         46.44078        46.57552        -0.22664
C         47.66214        48.72977        -0.54948
C         46.45291        47.99976        -0.46173
C         47.67548        50.12100        -0.78801
C         46.43206        50.82000        -0.90241
C         47.66937        52.95963        -1.07479
C         46.43402        52.24879        -1.03744
C         47.62377        54.37065        -1.16815
C         46.42075        55.05334        -1.22575
C         50.24575        20.52190        -1.18842
C         48.96296        21.18839        -1.07755
C         50.16638        23.24624        -0.38941
C         48.95945        22.58399        -0.79021
C         50.17276        24.62626        -0.07641
C         48.98223        25.40270        -0.20650
C         50.13356        27.38134         0.67726
C         48.94687        26.75315         0.17302
C         50.12547        28.79737         0.92022
C         48.90195        29.54917         0.78975
C         50.14634        31.63533         1.17639
C         48.90026        30.93858         1.04382
C         50.17984        33.03992         1.25955
C         48.95190        33.78038         1.70558
C         50.12852        35.87576         0.87047
C         48.97024        35.23043         1.28589
C         50.08961        37.29427         0.61178
C         48.90988        38.04970         0.77052
C         50.13221        40.11883         0.20503
C         48.91118        39.46612         0.49927
C         50.14882        41.55678        -0.08922
C         48.87142        42.31693         0.06462
C         50.18212        44.42837        -0.14120
C         48.95961        43.77077         0.45467
C         50.16062        45.76484        -0.42144
C         48.95127        46.56372        -0.13340
C         50.16252        48.72240        -0.83355
C         48.94792        48.03907        -0.37151
C         50.17729        50.10436        -0.94822
C         48.92520        50.83807        -0.89393
C         50.19325        52.90228        -1.17564
C         48.92831        52.23561        -1.03936
C         51.39148        21.10938        -0.77791
C         52.65762        23.17522         0.03262
C         51.35681        22.40095        -0.00443
C         52.63561        24.54658         0.36172
C         51.37731        25.26696         0.38529
C         52.56518        27.23969         1.28978
C         51.33389        26.61906         0.77007
C         52.56851        28.75996         1.48174
C         51.33071        29.48827         1.18010
C         52.62187        31.59597         1.18708
C         51.37372        30.90203         1.16191
C         52.63224        33.00726         1.05382
C         51.39616        33.73309         1.07636
C         52.61801        35.79810         0.60506
C         51.39788        35.14759         0.83906
C         52.62513        37.19792         0.14962
C         51.30665        37.96422         0.13250
C         52.62158        40.10455         0.03312
C         51.37238        39.43273         0.14718
C         52.65394        41.56018        -0.02499
C         51.43448        42.28262        -0.07078
C         52.64826        44.38553        -0.42789
C         51.41742        43.67826        -0.23348
C         52.64582        45.75894        -0.78632
C         51.35527        46.42732        -0.97122
C         52.65584        48.63000        -1.20647
C         51.35885        47.94393        -1.15185
C         52.65910        50.06721        -1.16971
C         51.44109        50.79372        -1.12950
C         51.38537        52.22126        -1.21313
C         55.09410        23.19328         0.07614
C         53.89331        22.51956        -0.10100
C         55.11661        24.55056         0.46267
C         53.87158        25.23608         0.61703
C         55.06130        27.28056         1.35412
C         53.86089        26.58720         1.06474
C         55.06467        28.73036         1.52127
C         53.85557        29.46279         1.41610
C         55.09748        31.58269         1.22316
C         53.86140        30.87212         1.26859
C         55.10718        32.99907         1.04430
C         53.87243        33.70926         0.94594
C         55.10331        35.82766         0.56666
C         53.86655        35.11478         0.72142
C         55.08049        37.23323         0.34446
C         53.87673        37.96490         0.21003
C         55.11885        40.11063         0.09904
C         53.85833        39.38077         0.05885
C         55.13322        41.56953         0.04020
C         53.88120        42.27688        -0.05727
C         55.09720        44.43049        -0.41462
C         53.88167        43.69188        -0.28128
C         55.09515        45.76892        -0.81571
C         53.84886        46.46274        -1.02160
C         55.09304        48.57977        -1.73107
C         53.83366        47.87513        -1.28951
C         55.10709        50.01425        -1.25081
C         53.95941        50.71062        -1.08542
C         57.62442        24.59807         0.63227
C         56.34778        25.23947         0.77544
C         57.53493        27.19524         1.71325
C         56.29447        26.56320         1.26056
C         57.53758        28.76802         1.88432
C         56.28702        29.46417         1.58079
C         57.57480        31.58146         1.38306
C         56.32084        30.86530         1.38752
C         57.57731        32.99782         1.17232
C         56.34474        33.70808         0.98393
C         57.59809        35.80092         0.67872
C         56.35103        35.11686         0.72837
C         57.64364        37.22566         0.29404
C         56.33951        37.95883         0.12762
C         57.58153        40.16060         0.57468
C         56.31845        39.43055         0.19889
C         57.59897        41.58790         0.08763
C         56.34704        42.26626        -0.01197
C         57.61699        44.39190        -0.52013
C         56.36833        43.77720         0.05581
C         57.59150        45.75401        -0.93590
C         56.35517        46.47819        -1.03946
C         57.60026        48.43930        -1.78433
C         56.36938        47.81368        -1.45531
C         58.80755        25.24052         0.91311
C         60.00032        27.29606         1.63623
C         58.82097        26.56783         1.42968
C         59.99640        28.69010         1.79231
C         58.81956        29.45305         1.74803
C         60.01830        31.62248         1.51527
C         58.80676        30.88256         1.54509
C         60.02164        32.98759         1.33639
C         58.81415        33.71142         1.15329
C         60.04128        35.88494         0.90014
C         58.81648        35.13146         0.92001
C         60.07989        37.24423         0.70718
C         58.89243        38.00479         0.48888
C         60.06401        40.17138         0.26609
C         58.87359        39.39856         0.37607
C         60.03862        41.53381         0.06266
C         58.81498        42.26286        -0.08017
C         60.02564        44.32801        -0.87609
C         58.82119        43.67482        -0.48534
C         60.02448        45.65219        -1.25352
C         58.81332        46.39377        -1.29645
C         58.79352        47.75421        -1.70906
O         27.81410        29.05572        -2.23199
O         24.44910        30.42741        -2.62269
O         49.14285        47.48159         1.01825
O         49.32770        41.96565        -1.27099
O         35.06157        36.86913         3.01156
O         52.43351        27.84051         2.61783
O         51.14079        47.02293        -2.29923
O         42.15677        48.02003        -2.27617
O         39.26184        40.27617         2.78947
O         39.08716        34.23339         3.01584
O         57.08622        37.45638        -1.06456
O         51.87038        37.37956        -1.10047
O         42.14778        42.46507         2.43308
O         36.92810        21.51189        -2.84254
O         36.48778        34.21576         3.16580
O         57.44508        27.84990         3.00691
O         47.14734        35.66586         2.86123
O         41.61812        38.94909         3.17413
O         37.37278        24.70741         1.35137
O         31.15873        22.64232         1.59431
O         42.66507        27.98017        -2.23006
H         43.57063        28.28197        -2.49498
O         40.55975        24.32279         1.27595
H         39.66942        24.14698         1.65309
O         51.11918        22.01560         1.40583
H         50.26712        21.52976         1.43193
O         56.42697        44.07628         1.50905
H         57.30930        43.78576         1.82612
O         38.21377        39.70540        -0.67505
H         37.51541        40.03943        -1.27716
O         25.62281        44.49517         3.00475
H         24.84198        44.98493         3.34188
O         48.08972        25.12246        -2.38210
H         48.26004        26.08792        -2.43504
O         29.09695        39.47294        -1.26810
H         28.28105        38.99393        -1.52959
O         45.43774        28.03663        -2.15855
H         45.60950        27.19136        -2.63022
O         38.98087        54.99346        -3.44034
H         39.81400        55.42737        -3.72328
O         37.44624        19.23832        -3.87900
H         36.91318        20.05415        -4.03776
O         49.12472        43.77923         1.90477
H         49.11564        44.71374         2.20353
O         31.94361        51.28068         1.79177
H         32.79386        51.76906         1.82238
O         55.02113        48.65789        -3.20172
H         54.13800        49.01806        -3.43183
O         27.28964        31.52651        -2.58746
H         27.84207        30.78569        -2.93598
O         36.31817        47.66188        -2.37310
H         36.31055        48.54907        -2.79242
O         49.02651        33.76468         3.17408
H         48.31508        34.37608         3.49227
O         40.25143        32.45558        -1.01120
H         40.33164        31.71080        -1.64478
O         32.64174        31.31366         2.68277
H         33.40260        31.74278         3.13045
O         57.48660        40.27499         2.06202
H         56.73362        40.87600         2.25419
H         22.26406        26.59465        -1.56925
H         22.37958        28.89507        -2.58933
H         22.29582        31.74232        -2.10037
H         22.13167        33.81425        -0.73832
H         22.06643        35.40136         0.36324
H         22.04792        37.77117         0.86573
H         22.04174        39.66896         1.09741
H         22.03642        42.07963         1.27932
H         22.03405        43.99179         1.27351
H         22.07592        46.43691         1.24249
H         25.42099        23.53951         0.08079
H         23.36171        24.72564        -0.53690
H         25.39866        49.79376         0.62562
H         23.29096        48.54954         0.89247
H         27.03980        22.54672        -0.08825
H         27.05475        50.74193         0.70572
H         29.09146        21.31417         0.32748
H         29.17913        51.93631         0.56100
H         32.92927        19.25428        -0.74024
H         30.90166        20.29494         0.10427
H         32.68718        53.83873        -1.26030
H         30.66883        52.75910        -0.46080
H         34.68310        18.38904        -0.99020
H         34.34235        54.84445        -1.33417
H         36.66656        17.37143        -1.86005
H         36.42103        56.00060        -1.84985
H         40.34075        15.38862        -2.98367
H         38.20119        16.63445        -2.94041
H         40.14368        58.21464        -1.22545
H         38.03728        57.01743        -1.53463
H         42.78475        15.34335        -2.75161
H         42.60919        58.25857        -1.35804
H         44.91062        16.49693        -2.35357
H         44.77342        57.08786        -1.27941
H         48.62317        18.53014        -1.61745
H         46.52640        17.38225        -2.00566
H         48.55482        54.95220        -1.19145
H         46.44666        56.14883        -1.29628
H         50.29281        19.53218        -1.66441
H         50.21779        53.99601        -1.27358
H         52.33897        20.56562        -0.89405
H         52.31619        52.79082        -1.34262
H         56.03075        22.63368        -0.04435
H         53.93046        21.44888        -0.34070
H         56.07239        50.53280        -1.15362
H         54.00680        51.77783        -0.82358
H         57.66832        23.57052         0.24832
H         57.59480        49.47770        -2.14354
H         59.76521        24.72793         0.74153
H         60.96639        26.78072         1.53241
H         60.97128        29.19621         1.81140
H         60.97801        31.10692         1.64969
H         60.98667        33.51002         1.32923
H         60.99142        35.36738         1.08486
H         61.04944        37.75711         0.77105
H         61.03831        39.66271         0.26251
H         60.99643        42.05967        -0.04346
H         60.97564        43.77785        -0.87588
H         60.96439        46.14580        -1.53969
H         59.73681        48.24462        -1.98933
