         314
 CSIRO Nanostructure Databank - Neutral Graphene Oxide Data Set
C         30.87568        57.43422         2.10736
C         31.00959        58.89091         2.52033
C         29.67896        59.57416         2.45059
C         30.57380        61.45988         1.19727
C         29.51185        60.79276         1.83400
C         33.09056        53.08738         1.37379
C         33.07239        54.49519         1.21544
C         31.93482        55.26561         1.53981
C         33.25986        57.36539         1.46367
C         31.94801        56.69058         1.66116
C         33.32806        58.87146         1.49394
C         32.05694        59.56949         1.67516
C         32.87415        61.45336         0.29583
C         31.85605        60.83632         1.05348
C         35.57858        48.82391         1.29527
C         35.52855        50.18987         1.10553
C         34.31490        50.93604         1.27675
C         35.31366        52.97511         0.27532
C         34.22038        52.31034         1.03030
C         35.35709        54.44714         0.26121
C         34.28428        55.15353         0.73310
C         35.47269        57.36208         0.16955
C         34.27514        56.63445         0.65585
C         35.61707        58.82095         0.33115
C         34.50044        59.65885         0.92582
C         35.30393        61.52269        -0.44979
C         34.08248        60.68066        -0.13975
C         38.00335        44.46352         0.93995
C         38.00720        45.88688         0.92213
C         36.81984        46.60402         1.08817
C         38.14070        48.78788         0.87895
C         36.82738        48.05078         1.26801
C         38.08398        50.24843         0.56175
C         36.76099        50.94093         0.73127
C         37.81468        52.94129        -0.45488
C         36.58709        52.23154         0.01050
C         37.76727        54.30391        -0.64284
C         36.65442        55.09733        -0.06757
C         37.80433        57.32377        -0.78077
C         36.72189        56.59838        -0.10400
C         37.79307        58.72593        -0.84626
C         36.64885        59.46209        -0.29672
C         37.74152        61.59081        -0.88168
C         36.55833        60.91676        -0.50884
C         40.46982        40.09044         1.03522
C         40.50922        41.57973         1.26973
C         39.20737        42.32088         1.06446
C         40.51424        44.44427         0.81999
C         39.19476        43.69562         0.89181
C         40.41511        45.85018         0.28984
C         39.24133        46.59136         0.55860
C         40.30229        48.62142        -0.36456
C         39.22678        47.98338         0.31362
C         40.24232        50.02439        -0.70513
C         39.10289        50.83444        -0.35612
C         40.03218        52.77523        -1.65426
C         38.96765        52.14435        -0.81960
C         40.06284        54.28302        -1.81559
C         38.82491        55.03060        -1.38073
C         40.10684        57.20862        -1.87893
C         38.83553        56.52768        -1.46274
C         40.09743        58.71653        -1.86390
C         38.91480        59.44359        -1.33317
C         40.14215        61.59133        -1.32294
C         38.94711        60.88411        -1.18790
C         42.86829        35.79056         0.76853
C         42.84738        37.20156         0.62900
C         41.64553        37.93341         0.76892
C         42.87991        40.02109         0.43419
C         41.63409        39.35833         0.73315
C         42.90404        41.48622         0.39896
C         41.59272        42.19091         0.39232
C         42.81877        44.34223        -0.33130
C         41.58106        43.64466         0.10889
C         42.75282        45.72651        -0.60459
C         41.53330        46.46575        -0.30344
C         42.56031        48.44667        -1.35309
C         41.45908        47.83961        -0.67346
C         42.31126        49.71192        -1.91934
C         41.27674        50.57451        -1.50522
C         42.64053        52.83550        -2.00931
C         41.29501        51.99938        -1.89615
C         42.59378        54.30191        -1.77460
C         41.37171        55.02272        -1.83140
C         42.61430        57.16253        -1.63408
C         41.38385        56.44529        -1.76593
C         42.64607        58.62998        -1.57391
C         41.43062        59.41047        -1.86850
C         42.64320        61.50202        -1.04602
C         41.42471        60.92716        -1.58106
C         45.31235        32.94982         0.78772
C         44.10590        33.64629         0.85538
C         45.30447        35.74967         0.43694
C         44.07432        35.05866         0.68701
C         45.29894        37.16163         0.25431
C         44.08172        37.89178         0.35831
C         45.29396        39.99809        -0.16613
C         44.08187        39.31645         0.21458
C         45.30516        41.40790        -0.46743
C         44.11124        42.20495        -0.11367
C         45.13767        44.25100        -1.08876
C         43.99440        43.60724        -0.58129
C         45.09813        45.64188        -1.29904
C         43.90912        46.39380        -1.10289
C         45.06349        48.56070        -1.51548
C         43.86185        47.81742        -1.40919
C         45.15465        49.99303        -1.56637
C         44.09392        50.79193        -2.06605
C         45.06289        52.85292        -1.28473
C         43.91734        52.14271        -1.75281
C         45.04600        54.26399        -1.30591
C         43.83171        54.99948        -1.55654
C         45.09521        57.18187        -1.40586
C         43.82175        56.43207        -1.54055
C         45.06008        58.62894        -1.06645
C         43.82027        59.33195        -1.26088
C         45.02622        61.41300        -0.57915
C         43.82138        60.76859        -1.00131
C         46.51574        33.61490         0.55383
C         47.74601        35.72348         0.13440
C         46.53883        35.02563         0.37106
C         47.75812        37.12344        -0.07165
C         46.51990        37.84582        -0.02252
C         47.71278        39.89790        -0.64843
C         46.50612        39.24813        -0.28556
C         47.66621        41.27771        -1.13846
C         46.41718        42.04193        -0.99403
C         47.64129        44.22916        -1.24188
C         46.36284        43.46264        -1.52094
C         47.60677        45.58125        -1.10986
C         46.38378        46.34650        -1.48579
C         47.50989        48.57827        -0.85235
C         46.36293        47.84899        -1.42779
C         47.48164        49.95298        -0.69686
C         46.30338        50.70485        -1.08834
C         47.44263        52.81588        -0.51152
C         46.27382        52.11062        -0.99016
C         47.46640        54.21320        -0.53823
C         46.41498        54.91013        -1.37407
C         47.47354        57.09873        -0.44496
C         46.37089        56.42468        -1.19991
C         47.47515        58.58533        -0.39735
C         46.23005        59.30681        -0.76760
C         47.42798        61.35487        -0.00985
C         46.22721        60.71816        -0.47035
C         48.96746        37.83667        -0.28641
C         50.19083        39.97635        -0.57739
C         48.96281        39.21780        -0.56159
C         50.21478        41.35124        -0.72870
C         48.99988        42.03462        -1.21981
C         50.18635        44.27355        -0.76764
C         48.95769        43.53179        -1.22581
C         50.04607        45.67365        -0.32081
C         48.72826        46.31702        -0.47679
C         49.84670        48.53680         0.10923
C         48.63266        47.81290        -0.28881
C         49.84023        49.93198         0.14019
C         48.64149        50.66114        -0.20661
C         49.80362        52.75485         0.28069
C         48.61711        52.05930        -0.11840
C         49.69873        54.18770         0.57921
C         48.59553        54.94214        -0.04077
C         49.85696        57.05149         0.33706
C         48.69073        56.32509        -0.11641
C         49.93810        58.47457         0.04864
C         48.80360        59.31603        -0.52487
C         49.78677        61.54407         0.48629
C         48.69112        60.75941         0.02143
C         51.36550        42.13200        -0.33699
C         52.45068        44.27682         0.27420
C         51.35976        43.50975        -0.27655
C         52.35818        45.62816         0.51245
C         51.10374        46.32802         0.27078
C         52.32732        48.56737         0.77615
C         50.98521        47.76678         0.59953
C         52.28541        49.97949         0.45033
C         51.06965        50.66176         0.35090
C         52.26003        52.85503         0.58783
C         51.03123        52.10182         0.38754
C         52.21987        54.17777         0.96963
C         50.94673        54.93198         1.02886
C         52.13977        57.19580         1.40164
C         50.98406        56.39570         0.82733
C         52.35405        58.52529         0.68249
C         51.20268        59.02933         0.02419
C         52.32610        61.59580         0.88281
C         51.14124        61.20221         0.27238
C         53.52847        46.36250         1.15386
C         54.78697        48.49095         0.63994
C         53.61058        47.83221         0.77531
C         54.85085        49.92953         0.26873
C         53.54024        50.67777         0.12194
C         54.85801        52.89433         0.24345
C         53.53692        52.17606         0.18524
C         54.76415        54.28690         0.81180
C         53.47010        54.91253         1.27140
C         54.74369        57.17832         1.49652
C         53.44882        56.40726         1.53328
C         54.75118        58.64822         1.20799
C         53.50880        59.31387         0.86557
C         54.75968        61.43500         0.84066
C         53.52936        60.78285         0.79011
C         56.05671        50.72494         0.55912
C         57.37670        52.73549         0.88511
C         56.12496        52.10350         0.49779
C         57.71459        54.06161         0.60307
C         55.84354        55.22224         0.50206
C         57.29154        57.08684         1.22160
C         55.96532        56.45739         1.04280
C         57.26291        58.60867         1.30270
C         55.96630        59.30972         1.11317
C         57.22425        61.40054         0.72894
C         56.00317        60.73497         0.86988
C         58.71584        54.92965         1.09232
C         59.74497        57.15410         1.07990
C         58.59705        56.36631         1.04043
C         59.73162        58.59029         0.97958
C         58.51194        59.31510         0.99975
C         59.70577        61.38940         0.53296
C         58.48196        60.71108         0.74678
C         60.93535        59.30940         0.77212
C         60.91229        60.68780         0.56104
O         38.23330        55.72679        -2.54868
O         33.77077        58.04320         2.65949
O         48.20722        46.87518         0.80276
O         41.10406        42.67348        -0.89386
O         39.64595        53.41577        -2.91416
O         37.84548        48.48358         2.25770
O         43.18187        50.15496        -2.92017
O         54.15774        52.76633        -1.02087
O         54.14790        56.76503         2.77277
O         51.34326        60.21025        -0.71931
O         46.63239        47.11949        -2.70655
O         49.94880        54.47912         2.00335
O         51.48016        48.17199         1.90415
O         54.36283        54.24655         2.22223
O         41.57473        60.36899        -2.94872
O         37.80056        51.06436         1.75240
O         56.85411        54.71691        -0.31165
O         39.90781        57.96449        -3.11807
O         47.14069        57.82639         0.81771
O         43.85144        42.10279         1.34715
O         54.23093        50.15999        -1.05773
O         48.39860        41.45953        -2.41064
O         46.28983        43.36962        -3.02015
O         49.90117        44.09357        -2.20635
O         57.31407        57.78829         2.51777
O         37.17625        55.87267         1.11048
O         35.54951        52.27407        -1.01581
O         46.08641        57.01840        -2.51324
O         41.89940        52.34202        -3.15773
O         34.33389        57.09915        -0.75893
O         31.45797        58.92982         3.92039
H         32.35522        58.51833         3.93014
O         33.69256        59.96691        -1.35804
H         33.98605        59.02511        -1.31008
O         40.99973        44.56656         2.20401
H         40.38275        45.15787         2.68676
O         35.03970        60.41817         2.03216
H         35.14089        59.79928         2.78768
O         46.86402        54.64761        -2.74312
H         46.50580        55.38272        -3.29778
O         40.89195        41.78160         2.66689
H         41.07912        42.74752         2.77942
O         45.11133        42.57318        -3.32286
H         45.47340        41.91036        -3.95996
O         51.71515        57.56841         2.74359
H         52.52580        57.54145         3.30806
O         49.01668        59.43483        -1.95675
H         49.88596        59.88327        -2.07433
O         54.75564        45.69377         0.88063
H         54.91824        45.72349        -0.08440
H         29.89712        56.94705         2.23526
H         28.83017        59.09304         2.95781
H         30.40641        62.44575         0.74163
H         28.52212        61.27268         1.84838
H         32.21840        52.59136         1.82549
H         31.01942        54.73503         1.84323
H         32.67706        62.43672        -0.15749
H         34.64271        48.27390         1.47763
H         33.44588        50.41098         1.70146
H         35.19036        62.58193        -0.72586
H         37.04379        43.94394         1.08391
H         35.86124        46.06635         1.13579
H         37.73987        62.68786        -0.96505
H         39.54363        39.54080         1.26377
H         38.25540        41.78618         1.21013
H         40.15258        62.67096        -1.11208
H         41.92674        35.25713         0.96648
H         40.71229        37.39404         0.98908
H         42.62079        62.52681        -0.64661
H         45.31516        31.85906         0.92328
H         43.16698        33.10673         1.04438
H         44.99140        62.48751        -0.34612
H         47.45835        33.05133         0.50635
H         48.69346        35.16531         0.09867
H         47.34808        62.41363         0.28539
H         49.92502        37.29771        -0.23652
H         51.11635        39.45383        -0.29113
H         49.55410        62.45414         1.06150
H         52.25331        41.58502         0.01571
H         53.38420        43.75348         0.53172
H         52.37423        62.52445         1.47133
H         53.37702        46.31717         2.26871
H         55.73186        47.93637         0.75472
H         54.78176        62.53442         0.80190
H         56.96173        50.16973         0.85221
H         58.09229        52.11504         1.44637
H         57.22391        62.48909         0.56835
H         59.64260        54.51241         1.51644
H         60.72590        56.65528         1.04716
H         59.69944        62.47347         0.35147
H         61.89183        58.76747         0.76532
H         61.85640        61.22726         0.40139
