         260
 CSIRO Nanostructure Databank - Neutral Graphene Oxide Data Set
C         30.52475        32.20013         0.19043
C         30.57441        32.99819        -0.76421
C         30.29932        36.02279        -1.84943
C         30.31371        37.24966        -1.98590
C         30.36103        40.35625        -1.35389
C         30.30092        41.55010        -0.85844
C         32.81403        30.59354         2.87424
C         31.84684        31.11988         2.22877
C         32.82716        31.73886         0.19954
C         31.59133        31.59499         0.93657
C         32.73259        33.07053        -1.68264
C         31.48459        33.70172        -1.61309
C         32.69353        35.85086        -2.43286
C         31.33299        35.04351        -2.16710
C         32.73410        37.36006        -2.32741
C         31.43243        38.18411        -2.14504
C         32.71749        40.12695        -0.93115
C         31.43464        39.52139        -1.53411
C         32.89812        41.66725        -1.16029
C         31.28640        42.47690        -0.66280
C         32.73058        44.13753         0.46828
C         31.65831        43.61062        -0.04079
C         35.56967        28.89263         3.37753
C         35.37808        30.23917         2.90593
C         34.17114        30.98454         2.81486
C         35.29086        31.84134        -0.05277
C         34.10364        31.87806         0.73423
C         35.27289        33.07726        -1.85215
C         33.97575        33.74492        -2.00637
C         35.19712        35.89615        -2.54444
C         33.95072        35.12024        -2.22097
C         35.17213        37.26104        -1.88311
C         33.99715        37.95309        -1.79712
C         35.24963        40.00759        -0.83720
C         33.99192        39.40374        -1.39026
C         35.27564        41.38387        -0.19473
C         34.06852        42.27034        -0.35070
C         35.08056        43.85740         1.40729
C         33.94014        43.48043         0.54335
C         35.49003        45.25191         1.68847
C         37.65533        28.33998         2.37357
C         36.61784        28.21860         3.40614
C         37.58921        29.70957         1.66379
C         36.53904        30.63504         2.17443
C         37.74779        32.19326        -0.31249
C         36.56430        32.00487         0.45651
C         37.74645        33.05443        -1.41331
C         36.51929        33.68483        -1.94408
C         37.82426        35.87114        -2.23984
C         36.53133        35.11491        -2.41703
C         37.75787        37.25232        -1.68230
C         36.43055        37.77601        -1.27903
C         37.69262        39.77203        -0.26972
C         36.41494        39.10122        -0.58352
C         37.61487        40.86495         0.72929
C         36.32698        41.63018         0.86318
C         37.60457        43.42277         2.24484
C         36.29012        42.94745         1.59789
C         37.78780        44.89337         2.53886
C         36.55838        45.55732         2.23528
C         39.94145        26.03491         4.16523
C         39.14016        26.54181         3.31135
C         40.15296        28.27356         2.03324
C         38.96605        27.68193         2.49984
C         40.14816        29.77418         1.67020
C         38.86770        30.14682         0.84193
C         40.26306        31.82977        -0.45068
C         39.00448        31.66549         0.39551
C         40.32493        32.96843        -1.22395
C         39.08905        33.60642        -1.76307
C         40.35182        35.91599        -1.92219
C         39.11103        35.08764        -2.06177
C         40.22770        37.39700        -1.68947
C         38.89658        37.96981        -1.38641
C         40.10678        40.14807        -0.60801
C         38.87882        39.24935        -0.69122
C         40.21062        40.90151         0.73105
C         38.91185        41.34851         1.33501
C         40.20514        43.16434         2.64492
C         38.86867        42.58021         2.19366
C         40.22362        44.59770         3.16600
C         38.97773        45.42568         2.95150
C         40.39039        47.39815         3.28897
C         39.30732        46.80564         3.12587
C         42.50561        26.34135         4.52185
C         41.30414        26.00414         3.84042
C         42.63057        28.33803         2.24038
C         41.44091        27.64151         2.21315
C         42.72830        29.76906         1.72344
C         41.45669        30.21216         1.00322
C         42.80142        31.68106        -0.50774
C         41.49137        31.23141         0.08716
C         42.88119        33.03314        -1.21972
C         41.56174        33.81458        -0.98047
C         42.68849        36.07430        -0.95896
C         41.68053        35.17946        -1.72233
C         42.71175        37.45275        -1.60032
C         41.43714        38.15552        -1.28710
C         42.63472        40.25266        -0.73414
C         41.40758        39.41767        -0.82022
C         42.66859        41.32120         0.32073
C         41.50191        41.60828         1.01400
C         42.84162        43.11964         2.59565
C         41.50813        42.50022         2.20447
C         42.84145        44.46474         3.30064
C         41.56732        45.28951         3.44909
C         42.97259        47.27469         3.50647
C         41.68158        46.81743         3.46149
C         43.48762        26.98780         4.11480
C         45.18181        28.22960         2.49190
C         43.84281        27.74918         2.90839
C         45.28681        29.29097         1.36777
C         44.02084        29.93409         0.89841
C         45.44800        31.71691        -0.40825
C         44.09993        31.06785        -0.09383
C         45.44916        33.19014        -0.71286
C         44.10555        33.85786        -0.74240
C         45.32159        36.19913        -0.74773
C         44.04103        35.35736        -0.73103
C         45.27442        37.42661        -1.71543
C         43.96698        38.22634        -1.72012
C         45.20522        40.38282        -0.97629
C         43.91231        39.68340        -1.30955
C         45.18902        41.60854        -0.09621
C         43.94681        41.94246         0.67829
C         45.36163        43.25496         2.25373
C         44.05529        42.78394         1.77852
C         45.31164        44.19671         3.49310
C         44.17706        45.15976         3.30173
C         43.99996        46.48377         3.52537
C         47.49413        28.17496         2.42971
C         46.49363        28.12374         3.17601
C         47.73560        29.02382         1.29399
C         46.64617        29.80765         0.92933
C         47.99433        31.88537         0.08595
C         46.72679        31.02382         0.03420
C         47.92951        33.29117        -0.45770
C         46.60459        33.92755        -0.78989
C         47.75818        36.07034        -1.33628
C         46.60698        35.38503        -1.02594
C         47.71411        37.52996        -1.66893
C         46.47218        38.28027        -1.38287
C         47.72019        40.35119        -0.97157
C         46.47800        39.63324        -1.14270
C         47.78439        41.49616        -0.15060
C         46.52383        42.25853         0.29837
C         47.89403        43.25276         2.19693
C         46.53535        42.81999         1.69954
C         47.73163        44.42175         3.06652
C         46.67788        44.80427         3.57187
C         50.57285        29.45963        -0.91505
C         49.50369        29.71791        -0.10281
C         50.60185        32.02622         0.01680
C         49.35528        31.16378         0.37438
C         50.49451        33.40538        -0.56916
C         49.15964        33.91369        -1.13419
C         50.28922        36.10235        -1.88082
C         49.13696        35.47468        -1.06352
C         50.23808        37.57266        -2.21107
C         48.93338        38.32650        -1.99374
C         50.25306        40.30589        -1.08368
C         48.93954        39.85206        -1.75359
C         50.20929        41.84294        -0.77279
C         49.02871        42.07729         0.17363
C         50.35897        43.75168         1.43798
C         49.12984        42.93415         1.38223
C         51.68124        30.12542        -0.92333
C         52.94487        32.26511        -0.42290
C         51.95476        31.29732        -0.24226
C         53.01875        33.52452        -0.53852
C         51.75009        34.04381        -1.15985
C         52.69530        36.37036        -1.98342
C         51.64009        35.37549        -1.79185
C         52.66312        37.53892        -2.36994
C         51.49754        38.42534        -2.39751
C         52.66765        40.57614        -1.41251
C         51.49898        39.83281        -1.89591
C         52.63540        41.50936        -0.57328
C         51.58572        42.33094        -0.13412
C         51.37402        43.30265         0.81701
O         34.99297        36.17006        -4.02389
O         47.96182        33.04878         0.98821
O         35.25536        42.44641        -1.20862
O         36.70848        31.96144         1.87256
O         42.19196        44.61851         4.59146
O         34.28678        32.22484         2.10206
O         43.94665        34.58943         0.52316
O         34.89423        40.14884        -2.24922
O         39.95907        41.16070        -1.56662
O         32.76247        31.72680        -1.21990
O         32.09623        38.08670        -3.42195
O         39.67618        40.23099         1.90309
O         36.19934        37.88512         0.19690
O         43.20364        37.81986        -2.91099
O         50.64411        33.19843         0.86891
O         43.41626        30.63597        -1.32317
O         39.26942        34.09357        -3.12638
O         39.32175        32.49544         1.48335
O         43.07861        40.56517        -2.09785
O         44.69256        26.97199         1.99537
O         48.84818        28.75368         0.54643
O         37.95120        42.51569         3.32134
O         45.14832        41.72159        -1.55866
O         48.04077        37.94211        -3.07774
O         36.58751        40.50915         1.73527
O         35.19237        42.99660         2.56893
O         40.38941        36.85450        -3.04248
O         31.85886        35.26637        -3.47672
O         44.52463        28.74305         0.23925
O         48.78804        42.23101         2.62084
O         50.04214        36.53822        -3.23092
O         35.21845        31.71545        -1.46476
O         46.24188        30.89444        -1.33295
O         41.51473        26.23174         2.44391
O         40.10102        43.46615         4.05628
O         42.29794        41.99362         3.32888
O         51.69000        34.16418        -2.60469
O         37.32813        35.52988        -3.57476
O         51.36861        39.53751        -3.29355
O         37.05700        28.46965         1.06123
O         50.31130        39.60099         0.16521
H         51.08070        39.91806         0.68597
O         42.19119        36.45350         0.34043
H         42.10793        35.62467         0.87994
O         50.02143        42.61006        -1.95015
H         49.64701        42.04800        -2.67221
O         35.66585        37.40469        -4.34255
H         36.57333        37.09014        -4.59625
O         45.50290        36.89506        -3.02916
H         44.67458        37.02536        -3.55441
O         38.89395        29.40401        -0.37202
H         38.23476        28.67188        -0.31669
O         42.87438        30.63277         2.88054
H         41.96274        30.76195         3.25229
O         32.65724        39.90005         0.49148
H         31.77884        40.18117         0.82759
O         41.44617        34.05701         0.45325
H         40.66551        33.55774         0.85062
O         40.07691        30.48994         2.92701
H         39.80850        31.43526         2.65780
O         49.06785        33.48706        -2.49765
H         49.88204        33.77470        -2.98250
O         33.01207        41.94888        -2.49350
H         33.79417        42.52156        -2.65689
O         49.37389        31.00378         1.80746
H         49.44960        31.90896         2.18980
O         42.24986        35.01318        -3.02003
H         41.56370        34.64941        -3.62051
O         48.86115        40.47388        -3.05208
H         48.31623        39.88588        -3.62803
O         45.47611        36.74860         0.57784
H         45.13182        36.07739         1.21177
O         45.03902        43.39805         4.62764
H         44.50844        43.90103         5.28042
O         49.45319        35.84520         0.30020
H         48.92966        35.28883         0.91789
O         43.05293        32.77200        -2.61218
H         43.39338        31.84882        -2.70276
O         46.60786        43.48613        -0.49148
H         46.25706        43.27001        -1.38838
