         288
 CSIRO Nanostructure Databank - Neutral Graphene Oxide Data Set
C        -11.14652         0.61011         0.63490
C         -9.93117         1.44333         0.41286
C         -8.65957         0.72154        -0.00637
C         -7.33484         1.43317         0.04022
C         -6.04777         0.67146         0.14889
C         -4.84424         1.36999         0.82207
C         -3.52001         0.60699         0.59432
C         -2.23774         1.44726         0.46714
C         -1.04898         0.61570        -0.09735
C          0.20216         1.37860        -0.39222
C          1.32122         0.74769        -1.18263
C          2.63306         1.48923        -1.27626
C          3.94969         0.75924        -1.41719
C          5.18638         1.49060        -0.97814
C          6.27409         0.84152        -0.48272
C          7.58184         1.54297        -0.27285
C          8.54965         0.95855         0.70703
C          9.93356         1.70562         0.83851
C         11.08160         0.81301         1.13134
C         -9.82790         2.77136         0.98337
C         -8.52749         3.49415         1.17273
C         -7.37091         2.89995         0.38672
C         -6.06924         3.59478         0.50642
C         -4.79222         2.82912         0.39127
C         -3.67801         3.51184         0.03127
C         -2.39555         2.80098        -0.23363
C         -1.14978         3.56077        -0.58155
C          0.19291         2.89947        -0.15006
C          1.36480         3.62337        -0.79716
C          2.67001         2.89165        -0.73732
C          3.92367         3.67568        -0.79563
C          5.20707         2.97591        -1.13428
C          6.47424         3.74773        -0.89439
C          7.74058         2.99349        -0.61830
C          9.00120         3.83360        -0.32762
C         10.12634         2.92103         0.09312
C         -8.59197         5.04770         0.93952
C         -7.25632         5.72213         1.25527
C         -5.94173         4.94580         1.18606
C         -4.98977         5.77312         0.29577
C         -3.75417         4.99483        -0.19544
C         -2.51814         5.77712        -0.54823
C         -1.17143         5.09916        -0.87655
C          0.04488         5.73506        -0.15699
C          1.32366         5.11349        -0.74703
C          2.61985         5.86266        -0.49031
C          3.85577         5.15961        -1.13959
C          5.06765         5.85727        -0.52078
C          6.34015         5.11883        -0.29012
C          7.52979         5.88666         0.19428
C          8.73970         5.05177         0.60642
C         -7.17746         7.05611         1.44022
C         -5.85296         7.73731         1.74321
C         -4.68446         7.11184         0.96057
C         -3.61301         7.94787         0.35025
C         -2.51577         7.33176        -0.51811
C         -1.20701         8.01269        -0.08308
C          0.08232         7.27926        -0.14572
C          1.20690         8.05818        -0.86781
C          2.57145         7.33669        -0.89663
C          3.85588         8.09779        -0.83060
C          5.19205         7.37723        -0.61499
C          6.02437         7.90714         0.56664
C          7.37668         7.17929         0.57891
C         -5.87058         9.24627         1.61275
C         -4.89473         9.99149         1.07772
C         -3.76004         9.46576         0.22369
C         -2.41385        10.18726         0.51874
C         -1.18650         9.51471        -0.09167
C          0.01579        10.15675        -0.09910
C          1.29865         9.49326        -0.33886
C          2.48957        10.13204        -0.18900
C          3.83233         9.62391        -0.70557
C          5.04164        10.15120         0.04209
C          6.06894         9.41853         0.49636
C        -11.15634        -0.73200         0.51264
C         -9.90217        -1.52707         0.40957
C         -8.63376        -0.76654         0.19994
C         -7.38123        -1.49926        -0.19033
C         -6.11746        -0.82681         0.27236
C         -4.85478        -1.62015         0.33416
C         -3.53909        -0.86831         0.29513
C         -2.48066        -1.49133        -0.56738
C         -1.19619        -0.69384        -0.89221
C          0.11854        -1.55311        -0.72519
C          1.31439        -0.76410        -1.30980
C          2.61685        -1.50403        -1.52853
C          3.94733        -0.75511        -1.47879
C          5.16293        -1.46519        -0.90958
C          6.31379        -0.64510        -0.37495
C          7.15655        -1.22910         0.77411
C          8.44356        -0.47098         1.10611
C          9.69962        -1.23308         1.54599
C         10.98331        -0.50237         1.41866
C         -9.91457        -2.95403        -0.01538
C         -8.79262        -3.63466        -0.34920
C         -7.44832        -2.97984        -0.32779
C         -6.23234        -3.82502        -0.05413
C         -4.90153        -3.13971         0.12571
C         -3.61504        -3.90143        -0.23777
C         -2.55602        -2.96711        -0.84415
C         -1.29953        -3.63908        -1.35920
C          0.01209        -2.92083        -1.39327
C          1.29407        -3.74175        -1.38090
C          2.61644        -3.02569        -1.40156
C          3.89760        -3.75453        -0.97541
C          4.93102        -2.84054        -0.31458
C          6.02392        -3.45351         0.50569
C          7.39491        -2.75161         0.43458
C          8.51421        -3.43982         1.25910
C          9.67600        -2.69543         1.54830
C         -8.87898        -4.97889        -1.04846
C         -7.61225        -5.81971        -1.01518
C         -6.33321        -5.33402        -0.34288
C         -5.09212        -5.91770        -1.01448
C         -3.88434        -5.04806        -1.31016
C         -2.59549        -5.88368        -1.46329
C         -1.30085        -5.14775        -1.40204
C         -0.10113        -5.86784        -0.83563
C          1.21206        -5.15357        -0.82940
C          2.29793        -5.58504         0.11334
C          3.61757        -4.90272         0.00837
C          4.86054        -5.68659         0.31056
C          6.04232        -4.92600         0.88028
C          7.39473        -5.60850         0.58629
C          8.45903        -4.82607         1.33697
C         -7.62787        -7.11227        -1.39990
C         -6.42469        -8.01957        -1.26443
C         -5.11281        -7.24606        -1.28601
C         -3.88176        -8.08336        -1.18149
C         -2.58073        -7.35617        -1.12872
C         -1.59090        -7.85478        -0.08173
C         -0.33608        -7.02871         0.11030
C          0.88462        -7.68915         0.68161
C          2.23060        -6.99157         0.67855
C          3.48872        -7.75821         0.95709
C          4.81667        -7.13187         0.63627
C          6.05369        -7.81375         1.21639
C          7.32654        -7.08158         0.88874
C         -6.43282        -8.84313         0.00787
C         -5.31411        -9.45199         0.41668
C         -3.99922        -9.36758        -0.32992
C         -2.81680        -9.39525         0.66804
C         -1.42944        -9.34436         0.05693
C         -0.32795        -9.94948         0.55206
C          0.93527        -9.21674         0.99208
C          2.23433        -9.76949         0.47454
C          3.50233        -9.33339         1.15450
C          4.80322        -9.89022         0.60392
C          5.97646        -9.24826         0.72206
O          2.70912        -4.57738         1.09103
O         -6.41355        -8.94100        -2.37500
H         -6.29945        -8.42652        -3.20055
O         -3.10970        -2.01217        -1.78395
O          6.02219        -7.77773         2.66658
H          5.92021        -6.82956         2.93102
O         -5.12130         1.38147         2.23437
H         -5.02625         0.45009         2.54958
O         -1.88110         2.81749        -1.59835
O         -2.52117        -8.00008         1.12286
O         -9.01346        -1.19208         1.54972
O          8.84452         1.80224         1.82820
O          2.06730        -3.65373        -2.60403
O          0.88596        -9.32029         2.43500
H          0.25622        -8.63504         2.75423
O         -0.05490         5.31671         1.20799
H         -0.20812         6.11021         1.77456
O         -3.19249        -0.40375         1.62669
O          0.76317         8.21326        -2.18531
O          5.30647         5.20874         0.77615
O         -5.60248        -1.27129         1.55108
O          4.17560         0.03906        -2.66499
O          1.71120         1.42009        -2.39975
O         -0.45415         7.70048         1.15760
O          5.95002         3.56401        -2.23930
O          3.52550        -9.58923         2.54778
H          2.62279        -9.40104         2.90500
O         -6.86764         3.70082        -0.72393
O          5.07797        -6.69528        -0.72635
O         -5.76655         6.12520        -0.86912
H         -5.15779         6.11124        -1.64677
O         -1.92362         1.81678         1.82698
H         -2.00558         1.00897         2.38318
O          4.87615        -2.80397         1.14113
O         -3.07077        -4.49764         0.94024
H         -3.82724        -4.69510         1.54396
O          5.88561        -4.98127         2.32736
H          5.17091        -4.34390         2.56281
O          3.41488         3.18117         0.49157
O         -3.47085         5.33696        -1.58432
O          0.92910        -6.17523        -1.83209
O         -0.01130        -6.88749         1.52059
O         -6.46903        -5.99230         0.89735
O          3.94184        10.18139        -2.04044
H          3.30229         9.68665        -2.60266
O         -6.48657         1.16841        -1.13202
O         -5.60730        -3.69522         1.26290
O         -0.78501        -3.02447        -2.58911
O          3.29127         7.67025        -2.12293
O          8.11729         1.96154        -1.58214
O         -5.60816         7.47871         3.15208
H         -4.63359         7.52866         3.27942
O          8.76435        -0.62342         2.52100
O         -2.91456        -8.21461        -2.26895
O         -8.16134         3.31948         2.58389
H         -8.88817         3.66808         3.14311
O          7.69915        -5.54577        -0.82143
H          7.82837        -4.57288        -1.07372
O         -4.16692        -4.40596        -2.56078
H         -3.38496        -4.53068        -3.15036
O          8.49044         4.53935         1.91181
H          8.10938         5.24812         2.46936
O          0.04207         0.62051         0.86573
O          7.86444        -2.91153        -0.85734
O          2.79722         5.88332         0.93883
H          2.84560         4.94913         1.25618
O          1.17576         4.39775        -1.99980
O         -1.03407         5.32997        -2.28351
H         -1.60262         4.67267        -2.74378
O         -3.43458         7.34234         1.68712
O         -5.34758         4.77701         2.47547
H         -5.97952         4.28880         3.04515
O         -4.15278         9.78147        -1.12897
H         -3.59029         9.26143        -1.75173
O          4.52378        -4.29090        -2.14143
H          3.83178        -4.43378        -2.82813
O          2.81301        -7.06972         2.02611
O         -7.29921        -2.09172        -1.51549
O          6.38626        -1.30208        -1.66811
O          0.36874        -1.90428         0.64335
H          0.43155        -1.07448         1.17909
O          1.74296        -1.14821        -2.63137
O          0.44368         3.03226         1.25282
H         -0.30266         2.61111         1.74783
O         -3.87212       -10.51521        -1.18644
H         -3.42069       -10.22164        -2.00858
O         -9.50113         1.25424        -1.04272
O         -1.83229        -5.62969        -2.67636
O          5.37841         7.62640         1.82552
H          5.17553         6.65972         1.85473
O         -2.66070         7.73432        -1.89761
H         -1.99003         7.23572        -2.42455
O          6.35112        -1.09304         1.94656
H          6.95424        -1.04241         2.72527
O          3.82617         5.18779        -2.55870
H          3.53707         6.08223        -2.86089
O         -2.20378        10.20843         1.93898
H         -2.03570         9.28707         2.23282
O         -9.21157        -4.71232        -2.42386
H         -8.58184        -4.04619        -2.77255
O         -1.26397        -0.28377        -2.25505
H         -1.43661        -1.08178        -2.81021
O          5.98591         7.64551        -1.79271
H          5.38381         7.66626        -2.56820
O         -8.98011         5.33958        -0.39113
H         -8.21273         5.13671        -0.97643
O          9.36907         4.41537        -1.59102
H          9.28048         3.72324        -2.28237
H         11.90579        -1.08770         1.55190
H         12.08267         1.25782         1.02278
H         11.11343         3.10308        -0.35988
H          9.66591         5.69382         0.60794
H          8.22917         7.69926         1.04824
H          6.92559         9.92546         0.96862
H          5.11047        11.24966         0.09003
H          2.47440        11.18066         0.15311
H          0.04662        11.23872         0.10686
H         -2.48811        11.24925         0.17831
H         -4.97409        11.08892         1.12786
H         -6.68645         9.75340         2.15295
H         -8.09407         7.66685         1.46188
H         -9.38624         5.45588         1.62105
H        -10.67210         3.11050         1.60666
H        -12.09070         1.14820         0.80883
H        -12.10500        -1.28243         0.60152
H        -10.89621        -3.44095        -0.12459
H         -9.72754        -5.57320        -0.62416
H         -8.53680        -7.54773        -1.84348
H         -7.36406        -8.93167         0.58579
H         -5.32529       -10.07128         1.32760
H         -2.96664       -10.09653         1.52007
H         -0.43075       -10.96226         0.97351
H          2.28279        -9.93374        -0.61582
H          4.78639       -10.92014         0.21622
H          6.90488        -9.73302         0.38316
H          8.27440        -7.63929         0.96233
H          9.19684        -5.36426         1.95459
H         10.64309        -3.22051         1.59121
