         349
 CSIRO Nanostructure Databank - Neutral Graphene Oxide Data Set
C          1.14809         3.37400         0.43137
C         -0.02764         4.04070         0.69186
C          1.12946         6.19022         0.72920
C         -0.03531         5.44738         0.85184
C          1.08774         7.68031         0.99811
C         -0.02497         8.39887         0.25923
C          1.05267        10.56311         0.83765
C         -0.04485         9.73561         0.20036
C          1.14879        12.00943         0.33816
C          0.17563        12.60964        -0.42289
C          0.87724        14.98527        -0.47016
C          0.25238        13.92437        -1.04243
C          1.26570        16.31082        -1.08748
C          0.02672        17.16772        -1.18478
C          1.08710        19.16193        -0.11473
C         -0.06571        18.41957        -0.73486
C          1.20657        20.58413        -0.67066
C          0.11016        21.29714        -1.08516
C          1.23451        23.47281        -0.91985
C          0.12105        22.72334        -1.20360
C          1.14844        24.91130        -0.55798
C          0.04838        25.73527        -1.10108
C          1.25333        27.83010        -0.67868
C          0.11250        27.09613        -1.14000
C          1.35032        29.21610        -0.87863
C          3.59165         3.42296         0.08972
C          2.37522         4.09494         0.31396
C          3.58236         6.25123         0.32915
C          2.36199         5.52471         0.45531
C          3.58538         7.69126         0.46586
C          2.39025         8.39909         0.71029
C          3.59830        10.51201         0.64590
C          2.38131         9.81024         0.71428
C          3.60519        11.94622         0.63053
C          2.42721        12.68211         0.57428
C          3.66309        14.83572         0.24167
C          2.52704        14.12012         0.56126
C          3.66658        16.27430        -0.00385
C          2.43040        17.01312        -0.36650
C          3.62286        19.11991         0.16965
C          2.38943        18.37271        -0.19437
C          3.68734        20.61336        -0.01016
C          2.50269        21.27374        -0.63677
C          3.73898        23.54026        -0.33776
C          2.53208        22.80520        -0.77812
C          3.71183        24.90190        -0.10661
C          2.39207        25.60623        -0.06153
C          3.68901        27.84394         0.09203
C          2.37650        27.11059        -0.05247
C          3.75593        29.24794        -0.36797
C          2.55159        29.90893        -0.72340
C          6.04093         3.45841        -0.21832
C          4.80507         4.13158        -0.04017
C          6.01064         6.28760        -0.16981
C          4.79206         5.56813         0.05051
C          6.02988         7.73020         0.00049
C          4.81978         8.40129         0.34188
C          6.09793        10.47593         0.61582
C          4.84333         9.80990         0.52036
C          6.12575        11.92867         1.02927
C          4.90707        12.61925         0.46226
C          6.19523        14.80792         0.52686
C          4.94420        14.09407         0.20880
C          6.11264        16.27267         0.57736
C          4.87040        16.93932         0.11960
C          6.20358        19.17399        -0.13033
C          4.91701        18.40497        -0.06117
C          6.19252        20.65326         0.08259
C          4.99467        21.31683        -0.06968
C          6.12771        23.50641         0.38830
C          5.05375        22.78622        -0.43623
C          6.27571        24.95622        -0.10027
C          4.93544        25.66922         0.05014
C          6.18090        27.78093         0.25949
C          4.94422        27.05398         0.13205
C          6.19663        29.21069        -0.00201
C          4.99333        29.87651        -0.41116
C          8.50005         3.48219        -0.42411
C          7.23891         4.16638        -0.40357
C          8.39790         6.34645        -0.88791
C          7.19265         5.60108        -0.46585
C          8.39872         7.88417        -0.84598
C          7.23981         8.44368        -0.05378
C          8.58009        10.43445         0.87697
C          7.28931         9.78855         0.39153
C          8.58299        11.94052         0.65238
C          7.41622        12.65013         0.68115
C          8.64332        14.86365         0.67233
C          7.39121        14.12012         0.64396
C          8.65906        16.24334         0.58055
C          7.42462        17.04121         0.56799
C          8.66800        19.21360         0.50317
C          7.53408        18.41675        -0.10411
C          8.62848        20.57073         0.64293
C          7.43903        21.36048         0.35595
C          8.57411        23.49780         0.98933
C          7.44426        22.75745         0.51666
C          8.56298        24.93033         0.99029
C          7.42103        25.66652         0.58649
C          8.57217        27.85236         0.93241
C          7.37160        27.08440         0.57858
C          8.59711        29.37835         0.59160
C          7.38531        29.93284         0.01289
C         10.96995         3.51541        -0.40995
C          9.71198         4.15362        -0.55267
C         10.99259         6.31734        -0.91313
C          9.70531         5.59094        -0.90298
C         10.96941         7.81807        -1.10768
C          9.75907         8.40484        -0.36486
C         11.23194        10.35530         0.60396
C          9.85030         9.67819         0.42758
C         11.17551        11.89619         0.64268
C          9.87462        12.65437         0.73906
C         11.10976        14.79479         0.71851
C          9.89846        14.13043         0.64242
C         11.10540        16.24171         1.17325
C          9.96073        17.01083         0.49616
C         11.12850        19.16993         1.07963
C          9.80602        18.41875         1.12191
C         11.12052        20.56378         1.15218
C          9.76084        21.21062         1.42739
C         11.11883        23.46520         1.44813
C          9.78509        22.74191         1.41542
C         11.12255        24.96267         1.40277
C          9.80270        25.70069         1.30589
C         11.04827        27.84217         0.95875
C          9.85983        27.15047         0.97507
C         11.07835        29.26110         0.61070
C          9.90631        29.95506         0.34385
C         13.41411         3.55778        -0.33321
C         12.18066         4.19647        -0.62027
C         13.40286         6.32598        -1.46673
C         12.16452         5.62391        -0.94212
C         13.52404         7.78295        -0.98284
C         12.29135         8.48371        -0.76387
C         13.45049        10.62710        -0.63119
C         12.28576         9.80592        -0.33086
C         13.49845        12.04361        -0.22691
C         12.38243        12.68398         0.26608
C         13.53111        14.88496         0.42888
C         12.35352        14.11945         0.50659
C         13.58721        16.29043         0.70603
C         12.39065        17.01449         0.95203
C         13.60869        19.19181         1.07951
C         12.34948        18.42328         1.01966
C         13.59643        20.65355         0.90145
C         12.35083        21.33170         1.05548
C         13.55564        23.48398         0.82603
C         12.36825        22.75305         1.10192
C         13.54282        24.95177         0.80045
C         12.37584        25.65370         1.06260
C         13.62777        27.86148         0.86996
C         12.33858        27.12731         1.15401
C         13.56008        29.28042         0.43072
C         12.32719        29.91912         0.36776
C         15.80210         3.69169         0.15714
C         14.64946         4.21772        -0.46528
C         15.98667         6.65449         0.18410
C         14.64194         5.39471        -1.41278
C         16.00173         7.81837        -0.56918
C         14.75199         8.46561        -0.88055
C         16.08000        10.69405        -1.12103
C         14.75389         9.92167        -1.05543
C         16.04734        12.04515        -0.44046
C         14.75799        12.78285        -0.45139
C         16.03376        14.87158         0.30124
C         14.75167        14.22949        -0.07650
C         16.00549        16.34229         0.19209
C         14.84052        16.99848         0.51445
C         16.05952        19.23135         0.35742
C         14.90486        18.44927         0.79537
C         16.03803        20.61419         0.39145
C         14.80331        21.35527         0.66536
C         15.95756        23.52519         0.17517
C         14.77368        22.78581         0.57148
C         15.95866        24.90940         0.11726
C         14.77653        25.67653         0.48677
C         16.10243        27.84006         0.44321
C         14.80734        27.06615         0.49982
C         15.99177        29.29714         0.03375
C         14.74763        29.95244         0.07344
C         18.22764         3.66686         0.73171
C         17.03410         4.38071         0.37739
C         18.41647         6.42184         0.14501
C         17.14094         5.79031         0.23097
C         18.51234         7.77059        -0.29535
C         17.32932         8.41534        -1.00201
C         18.50585        10.58208        -0.55394
C         17.30888         9.90908        -0.76676
C         18.49460        11.95937        -0.21488
C         17.24981        12.65328        -0.10367
C         18.57534        14.81133         0.15541
C         17.29404        14.08513         0.31776
C         18.53088        16.27647        -0.13737
C         17.23921        17.03492        -0.20224
C         18.54263        19.20792        -0.06870
C         17.20758        18.55089        -0.35078
C         18.48805        20.65214        -0.02654
C         17.27169        21.32244         0.08218
C         18.44351        23.51835        -0.55167
C         17.17876        22.76969        -0.22249
C         18.44023        24.99584        -0.57607
C         17.12845        25.65052        -0.43875
C         18.44459        27.86398        -0.51183
C         17.15930        27.14885        -0.37608
C         18.42057        29.28479        -0.46141
C         17.16520        29.96762        -0.30185
C         19.43983         4.30734         0.84504
C         20.81698         6.38736         0.56543
C         19.58147         5.69584         0.52487
C         20.88585         7.73029         0.22574
C         19.74175         8.42987        -0.23250
C         21.03011        10.63274        -0.48955
C         19.80401         9.82868        -0.84485
C         21.00618        11.90053        -0.06040
C         19.74710        12.63761         0.31315
C         20.94081        14.88206        -0.40147
C         19.75120        14.13470         0.00577
C         20.97189        16.23469        -0.41469
C         19.81350        17.01887         0.16978
C         20.98710        19.25373        -0.13333
C         19.74216        18.51576        -0.10203
C         21.01601        20.60768        -0.13326
C         19.77604        21.38836         0.00184
C         20.94938        23.62333        -0.74021
C         19.76660        22.87002        -0.27169
C         20.85461        24.94970        -0.97632
C         19.61325        25.69433        -0.78310
C         20.82361        27.90694        -0.95936
C         19.63637        27.16083        -0.77694
C         20.80767        29.30168        -0.90671
C         19.62199        29.99540        -0.67147
O         13.83983        10.43368        -2.05901
O         17.88490        16.47547        -1.42909
O         19.83253         9.58553        -2.24640
O         19.85625        22.38345         1.11228
O          8.40326        28.85457         1.95610
O         10.43346        23.09426         2.69167
O         14.49399        18.75495         2.17598
O         10.65196        12.27536         1.95845
O          9.87694         8.35057         1.08140
O          2.80137        27.66017         1.24313
O         15.46586         5.46812        -2.30974
O         14.67946        13.83984        -1.49497
O         17.62296        22.97344        -1.63623
O          1.42004        25.06678         0.89230
O          6.64506        16.93823         1.79210
O         13.16653        27.65815         2.25459
O          1.34643        14.83254         0.84961
O          8.94349         5.85511        -2.15434
O          5.47548        18.83061        -1.37847
O          5.09600        13.12422        -0.90439
O          3.46898        20.00752         1.32608
O          2.85393        21.90257        -1.91657
O         16.71872        26.49547        -1.59651
O         16.58512        14.37426         1.58644
O         10.45322        25.49668         2.59799
O         19.93616        16.92348         1.62570
H         20.76245        17.37879         1.89170
O          5.59016        23.55789         1.73312
H          6.25414        23.97755         2.31994
O         16.95442        18.82623        -1.76482
H         17.44459        18.14137        -2.27745
O          0.74064        10.62871         2.27084
H          1.42297        11.18960         2.69777
O          8.52712        10.27904         2.33171
H          8.82843         9.36045         2.52149
O         16.25854        11.06862        -2.52550
H         15.35643        11.26454        -2.87651
O         14.88867         6.35974         0.94621
H         15.07278         5.57304         1.49942
O          0.79620        19.30084         1.30201
H          1.61226        19.65290         1.73335
O          1.72639        16.01859        -2.43122
H          1.96248        16.86355        -2.86741
O         10.94499        16.12020         2.60464
H         10.44935        16.90993         2.93911
O         10.35981        17.14950        -0.88391
H          9.59208        17.51306        -1.39163
O          9.42757        20.85370         2.81420
H          9.92368        21.48798         3.38822
O          9.41411        18.22353         2.50736
H          9.32769        19.12763         2.91544
O         10.79964         8.07998        -2.52569
H         11.54687         7.62109        -2.98561
O         16.60729        27.82636         1.81603
H         15.89249        28.15453         2.40311
O          0.82150         7.82216         2.42351
H          0.71206         8.79032         2.60365
O          6.65756        25.03189        -1.50129
H          6.17760        24.31786        -1.99133
O          6.02282        11.97720         2.47839
H          6.81289        11.50656         2.83417
O         17.52239         8.26933        -2.42573
H         18.40171         8.73159        -2.62104
O          5.42559        22.76600        -1.85257
H          4.65532        22.36032        -2.32452
O         11.72452         9.97242         1.91502
H         11.24338        10.53523         2.56660
O          7.90550        18.15080        -1.48814
H          7.07229        18.20459        -2.02009
O         19.62862        12.52844         1.77063
H         18.90960        13.12735         2.06834
O         13.15591         6.48941        -2.90149
H         14.04421         6.45818        -3.33438
O          8.16301         8.36893        -2.18289
H          8.80464         7.90110        -2.77067
H          1.15928         2.28025         0.31932
H         -0.96927         3.48275         0.79113
H         -0.98087         5.95223         1.09471
H         -0.84462         7.81255        -0.18464
H         -0.89323        10.23730        -0.28609
H         -0.69686        12.01279        -0.72980
H         -0.20911        14.04026        -2.03389
H         -0.85451        16.68112        -1.63172
H         -1.03750        18.93171        -0.78320
H         -0.86899        20.80832        -1.17396
H         -0.84911        23.21847        -1.34962
H         -0.82790        25.22604        -1.52584
H         -0.72123        27.66497        -1.57818
H          0.46889        29.75502        -1.25665
H          3.59680         2.32539         0.01282
H          2.59120        30.98052        -0.96667
H          6.05909         2.35843        -0.20449
H          5.05516        30.93448        -0.70738
H          8.50405         2.39436        -0.25676
H          7.40917        30.95337        -0.39780
H         10.99918         2.45105        -0.13155
H          9.96333        30.95472        -0.11216
H         13.38995         2.55684         0.12713
H         12.29644        30.97509         0.05927
H         15.72654         2.66418         0.55218
H         14.69061        31.01239        -0.21874
H         18.15908         2.58336         0.90606
H         17.13202        31.05339        -0.48101
H         20.33401         3.73756         1.13734
H         21.72593         5.85076         0.87385
H         21.85265         8.25016         0.27924
H         22.00113        10.17216        -0.72854
H         21.95852        12.41921         0.13162
H         21.81512        14.31669        -0.75506
H         21.87772        16.75483        -0.75940
H         21.93287        18.69458        -0.17689
H         21.97576        21.14184        -0.15238
H         21.91139        23.10534        -0.85855
H         21.74957        25.49291        -1.30784
H         21.77806        27.40035        -1.15305
H         21.74262        29.85784        -1.06210
H         19.61520        31.09434        -0.65243
