         252
 CSIRO Nanostructure Databank - Neutral Graphene Oxide Data Set
C         30.59028        31.63400        -1.86423
C         30.64776        32.87611        -1.83874
C         30.60449        36.11603        -1.59599
C         30.47583        37.32457        -1.32658
C         30.54858        40.17266         0.33839
C         30.53151        41.30613         0.88471
C         32.93727        28.90950        -0.72271
C         31.90391        29.40076        -1.18606
C         32.98460        31.56058        -1.37134
C         31.58562        30.86043        -1.04077
C         32.94280        33.08365        -1.32525
C         31.73269        33.79410        -1.61205
C         32.91684        35.90114        -1.26270
C         31.71547        35.19394        -1.55913
C         32.86774        37.42217        -1.20200
C         31.59272        37.95162        -0.45551
C         32.85634        40.12782         0.05973
C         31.64365        39.43830        -0.17409
C         32.92166        41.36751         0.80009
C         31.69408        42.01021         1.27013
C         33.07633        43.53445         2.40516
C         31.92653        43.16986         2.04502
C         35.46545        27.52957         0.74006
C         35.32687        28.88375         0.28149
C         34.01117        29.57768         0.09616
C         35.32321        31.63752        -0.50841
C         34.14014        30.97720        -0.54602
C         35.44786        33.00316        -1.17381
C         34.14314        33.78435        -1.16126
C         35.39964        35.93719        -0.99973
C         34.13725        35.20661        -1.13974
C         35.39988        37.39253        -0.97670
C         34.10211        38.01760        -0.51772
C         35.42503        40.01233        -0.00385
C         34.11221        39.55420        -0.60104
C         35.45609        41.21942         0.84706
C         34.19600        41.90344         1.22463
C         35.65896        43.40796         2.71369
C         34.34163        42.99709         2.09250
C         35.83934        44.89823         2.84105
C         37.64208        27.60432         1.63643
C         36.43007        26.88272         1.17170
C         37.79390        28.89078         0.82202
C         36.52702        29.55223         0.34457
C         37.88155        31.71717        -0.05275
C         36.60148        30.93672        -0.17587
C         37.77589        33.18906        -0.19269
C         36.62882        33.80310        -0.65410
C         37.82346        36.03575        -0.46074
C         36.57353        35.24104        -0.76912
C         37.81702        37.36216        -1.15832
C         36.57755        38.12807        -1.10092
C         37.73730        40.39424        -0.82880
C         36.63281        39.55595        -0.76582
C         37.74901        41.69494        -0.09252
C         36.71257        41.99281         0.91748
C         38.21078        43.57056         2.00128
C         36.88844        42.96598         1.86646
C         38.16364        45.65760         2.80744
C         36.73061        45.74032         2.92354
C         40.03744        24.90740         2.49374
C         39.01233        25.58908         2.52137
C         40.18719        27.72859         2.37340
C         38.81586        27.01285         2.31929
C         40.21507        29.16488         1.87028
C         39.08011        29.67098         0.97551
C         40.26211        31.83838         0.66577
C         39.10614        31.12037         0.58280
C         40.27507        33.30574         0.40205
C         39.01584        33.98452         0.00657
C         40.33627        36.03278        -0.81606
C         39.05337        35.23063        -0.86530
C         40.32076        37.36315        -1.17694
C         39.01098        37.87095        -1.57078
C         40.23640        40.53897        -1.16499
C         38.99130        40.04920        -1.48085
C         40.27700        41.94613        -0.68986
C         39.03606        42.48437        -0.02287
C         40.45993        44.27517         1.08785
C         39.22694        43.46645         1.07105
C         40.51721        45.65183         1.85714
C         39.11363        46.32779         2.11601
C         40.01382        48.56475         1.59183
C         39.12469        47.71283         1.78285
C         42.54968        24.79899         2.04047
C         41.41267        25.40560         2.84278
C         42.74815        27.63177         2.31781
C         41.43375        26.93274         2.46541
C         42.82097        29.11547         1.92130
C         41.54271        29.88728         1.73419
C         42.82881        31.81972         0.47932
C         41.56340        31.24282         1.12429
C         42.80973        33.36753         0.67411
C         41.57465        33.92598        -0.03813
C         42.88601        36.06999        -0.95103
C         41.59549        35.28617        -0.69112
C         42.74676        37.60682        -0.90777
C         41.52500        38.22216        -1.14612
C         42.81183        40.49402        -1.29744
C         41.48986        39.72298        -1.40241
C         42.85324        42.05720        -1.21035
C         41.55987        42.69612        -0.57735
C         42.87908        44.56100         0.49521
C         41.57798        43.85114         0.39121
C         42.87567        46.02934         0.91502
C         41.49208        46.60377         1.10998
C         42.56138        48.83904         0.92986
C         41.27393        48.13420         0.96905
C         43.61560        25.39313         1.90261
C         44.71472        27.36540         0.77789
C         44.09500        26.77883         2.05770
C         45.25425        28.77862         1.12004
C         44.14819        29.78848         1.45924
C         45.28332        31.92090         0.49648
C         44.16772        31.20241         0.92312
C         45.16767        33.29545        -0.05869
C         44.04563        34.04089         0.12644
C         45.30092        36.14627        -0.50687
C         44.00782        35.55202        -0.01739
C         45.27207        37.57235        -0.83528
C         43.99565        38.36119        -0.84025
C         45.38870        40.47698        -1.10152
C         44.04789        39.73595        -0.96696
C         45.33850        41.96262        -0.75412
C         44.14317        42.64954        -0.66701
C         45.00052        44.99223        -0.60160
C         44.03012        44.06481        -0.29470
C         45.12072        46.34908        -0.09581
C         44.02540        46.91687         0.52021
C         43.64787        48.27866         0.70432
C         46.75461        27.27139        -0.55530
C         45.87081        26.68476         0.09224
C         47.39272        28.54881        -0.28036
C         46.58398        29.19073         0.61344
C         47.58475        31.75053        -0.48020
C         46.65003        31.39971         0.45211
C         47.59560        33.16877        -0.92633
C         46.36677        33.95448        -0.65469
C         47.76925        36.09498        -0.68321
C         46.46717        35.43632        -0.59907
C         47.83374        37.49553        -0.50991
C         46.60471        38.27958        -0.73928
C         47.89993        40.41347        -0.35215
C         46.51702        39.72564        -0.29276
C         47.69121        41.83810         0.15795
C         46.63362        42.57580        -0.45077
C         47.91922        44.71299        -0.01339
C         46.87730        43.94820        -0.62185
C         47.57457        46.11336        -0.05986
C         46.50968        46.74296        -0.17370
C         49.96473        28.77268        -0.51876
C         48.57762        29.17063        -0.97964
C         50.07819        31.53602        -0.93811
C         48.72190        30.86127        -0.87584
C         50.15226        33.02006        -0.61051
C         48.90373        33.85615        -0.66558
C         50.23989        35.96897        -0.61136
C         48.97735        35.33369        -0.70188
C         50.29882        37.39720        -0.39830
C         49.08186        38.16402        -0.26478
C         50.38959        40.13290         0.38211
C         49.10814        39.54353         0.10310
C         50.52846        41.42016         0.99302
C         48.62570        42.58292         0.86651
C         50.20266        44.26508         1.18929
C         48.85107        43.99129         0.76678
C         51.05458        29.34526        -0.73427
C         52.46958        31.55185        -0.93824
C         51.37157        30.72001        -0.84738
C         52.47990        32.83091        -0.96350
C         51.45020        33.75523        -0.78007
C         52.60550        35.99329        -0.75504
C         51.45890        35.15956        -0.72404
C         52.64907        37.23668        -0.64850
C         51.55315        38.10151        -0.37782
C         52.70429        40.35405         0.07320
C         51.60393        39.46085        -0.01363
C         52.77375        41.55828         0.43076
C         51.65328        42.27963         0.94057
C         51.28233        43.64520         1.19286
O         49.44107        41.85520         1.75439
O         45.12100        29.35524         2.44612
O         35.57825        39.85462         1.43806
O         38.85875        28.77539        -0.17445
O         37.78230        27.71229         3.05689
O         37.99508        42.85042        -0.98169
O         47.03875        30.33243         1.25858
O         46.04792        37.92103        -2.04832
O         41.04440        47.23406        -0.13277
O         40.64903        42.94508        -1.71355
O         41.61874        34.02500        -1.49036
O         39.51926        34.10704         1.37411
O         38.97798        38.99397        -2.39219
O         42.25104        40.07373        -2.59228
O         43.23845        44.98715         1.85770
O         49.29907        31.29045        -2.15600
O         38.50246        44.31228         3.16823
O         39.98182        28.89970         3.27484
O         46.00835        44.61333        -1.50368
O         41.59957        31.12134         2.57547
O         42.95233        28.67119         3.31823
O         37.54085        31.02864        -1.32889
O         46.75329        33.51844        -2.04332
O         49.46295        33.35707         0.62816
O         44.96449        26.88750         3.15943
H         44.64378        27.61411         3.74193
O         33.48424        29.76204         1.40923
H         32.60024        30.19815         1.31950
O         42.68486        31.52990        -0.92450
H         43.27717        32.11600        -1.44319
O         34.02931        37.71619         0.89419
H         33.77341        36.77647         1.00696
O         37.88486        36.25153         0.96888
H         37.10603        36.78528         1.23417
O         32.81852        37.89192        -2.56637
H         31.97926        37.57085        -2.96602
O         33.27703        31.20584        -2.73592
H         34.11496        31.66585        -2.99207
O         45.72141        40.45570        -2.50987
H         45.66143        39.51755        -2.82188
O         35.71742        32.71926        -2.58464
H         36.53378        32.16039        -2.60282
O         41.08269        45.42773         3.14780
H         40.50392        44.79595         3.62815
O         42.91751        42.52374        -2.56868
H         42.03072        42.38833        -2.97506
O         43.67052        27.56077        -0.18948
H         43.48183        26.70103        -0.62274
O         42.71382        33.69164         2.07605
H         42.16700        33.02047         2.54736
O         31.27523        31.07510         0.32575
H         30.37519        30.73204         0.50775
O         48.43410        28.88156        -2.33614
H         49.03999        29.46683        -2.84679
O         41.67206        25.26250         4.20438
H         41.70174        24.31241         4.43654
O         46.07302        39.72581         1.08261
H         46.81026        39.43803         1.66068
O         38.88951        34.80287        -2.23590
H         39.71628        34.33990        -2.50202
O         48.26377        40.60870        -1.74198
H         47.43307        40.75791        -2.27153
O         31.49718        37.31849         0.80668
H         30.83311        37.79227         1.35035
O         43.76115        36.11106         1.29896
H         43.44061        35.39693         1.90151
O         43.33139        35.76591        -2.28575
H         42.64282        36.04213        -2.92531
O         35.73341        42.83418         4.01269
H         36.53980        43.17162         4.45608
O         34.15896        40.04043        -1.94959
H         33.54222        39.50534        -2.50687
