         280
 CSIRO Nanostructure Databank - Neutral Graphene Oxide Data Set
C         30.34324        31.80157         0.97406
C         30.38983        33.01925         1.27579
C         30.32073        36.04362         1.02098
C         30.45965        37.29436         0.93015
C         30.37741        40.20476        -0.20778
C         30.37950        41.37542        -0.65254
C         32.80936        29.22672         0.04001
C         31.67707        29.70735         0.29165
C         32.75716        31.77067         0.96038
C         31.50412        31.03590         0.73779
C         32.72387        33.15021         1.39510
C         31.50499        33.83683         1.54449
C         32.69386        36.10773         1.74656
C         31.40396        35.29837         1.70229
C         32.77724        37.49838         1.20851
C         31.54725        38.16732         0.83934
C         32.81818        39.90271        -0.30157
C         31.52750        39.64415         0.58976
C         32.96597        41.26171        -0.93542
C         31.30570        42.20699        -1.31981
C         32.85380        44.03611        -1.14813
C         31.69833        43.55033        -1.10041
C         35.50580        27.91845        -0.86887
C         35.32523        29.23066        -0.29681
C         34.08252        29.82424         0.13642
C         35.34207        31.84821         0.90546
C         34.00970        31.14243         0.64005
C         35.19860        33.39632         0.90604
C         34.02998        33.80813         1.86828
C         35.26086        36.11706         2.07152
C         33.97217        35.35380         1.99787
C         35.27066        37.63417         1.78659
C         34.01187        38.13268         1.07743
C         35.34950        39.90010        -0.21591
C         34.06483        39.55913         0.57049
C         35.36570        41.42497        -0.37364
C         34.14019        42.07880        -0.69304
C         35.30538        44.24167        -0.53319
C         34.13450        43.51679        -0.79007
C         35.48743        45.65822        -0.43151
C         37.60502        28.24084        -1.97634
C         36.44583        27.34578        -1.44344
C         37.77397        29.28090        -0.80296
C         36.48042        29.97033        -0.41201
C         37.74543        32.17917         0.01920
C         36.45789        31.40186        -0.03844
C         37.75506        33.45725         0.80852
C         36.54465        34.06021         1.19549
C         37.82319        36.09205         1.89222
C         36.56266        35.28507         2.12028
C         37.80907        37.39274         1.46745
C         36.56881        38.13927         1.16545
C         37.84706        39.98769         0.05625
C         36.58446        39.31208         0.44715
C         37.84477        41.45256        -0.28849
C         36.55589        42.16315        -0.31974
C         37.80096        44.32070        -0.11802
C         36.55698        43.58487        -0.31401
C         37.78991        45.82432         0.26678
C         36.44725        46.38327        -0.15834
C         40.16916        25.90701        -3.65296
C         39.16579        26.57815        -3.19838
C         40.22943        27.94530        -1.59052
C         38.88701        27.51245        -2.25323
C         40.22434        29.46960        -1.41376
C         38.95858        30.20457        -1.07050
C         40.21736        31.95253         0.19926
C         39.03451        31.48293        -0.28805
C         40.22467        33.05587         1.25803
C         39.01092        33.97811         1.21096
C         40.50361        36.04480         1.88678
C         39.08284        35.23348         2.03276
C         40.44475        37.49271         1.27070
C         39.03280        37.95749         0.74333
C         40.36918        40.11671         0.20471
C         39.08421        39.50993         0.76848
C         40.32530        41.56191        -0.03007
C         39.09802        42.22869        -0.14854
C         40.33705        44.42951         0.09640
C         39.02790        43.66728        -0.13880
C         40.30925        45.86322        -0.45962
C         38.95756        46.57225        -0.35136
C         39.81928        48.07119        -2.00179
C         38.84014        47.59001        -1.39658
C         42.76290        25.94147        -3.62215
C         41.46149        26.40249        -3.31007
C         42.71433        27.95258        -1.80262
C         41.49486        27.47255        -2.32704
C         42.68872        29.09338        -0.84272
C         41.53579        30.05816        -0.98442
C         42.77972        31.65584         0.60414
C         41.52319        31.31200        -0.15889
C         42.80272        33.02542         1.22307
C         41.54087        33.83049         1.19970
C         42.86010        35.92423         1.10819
C         41.57194        35.18335         1.22838
C         42.82203        37.19693         0.30640
C         41.45443        37.85930         0.11095
C         42.75811        40.02575        -0.55742
C         41.51959        39.38760         0.06012
C         42.84877        41.50893        -0.15381
C         41.55701        42.28637        -0.23368
C         42.73595        44.38846        -0.81451
C         41.55861        43.66388        -0.36916
C         42.62058        45.63503        -1.44665
C         41.34898        46.33250        -1.42997
C         42.25959        47.91717        -2.94191
C         41.11357        47.50910        -2.19187
C         43.82673        26.38421        -3.11305
C         45.20918        27.81421        -1.49703
C         43.98530        27.38417        -2.13090
C         45.25175        28.88877        -0.59604
C         43.99546        29.59853        -0.26025
C         45.28816        31.66854         0.32959
C         44.05540        30.99644         0.20520
C         45.31803        32.98249         0.80832
C         44.15942        33.68756         1.50463
C         45.36623        35.89878         0.72579
C         44.16002        35.20441         1.24722
C         45.36752        37.22708         0.42938
C         44.10511        37.93495         0.09579
C         45.30049        40.08360        -0.22935
C         44.10821        39.38342        -0.19706
C         45.32961        41.54029        -0.42886
C         44.03882        42.20063        -0.84623
C         45.15346        44.36822        -0.31942
C         44.02135        43.69055        -0.63835
C         45.13289        46.18933        -1.63907
C         43.81931        46.09360        -2.37273
C         43.36601        47.37366        -3.01943
C         47.49287        27.71915        -1.23551
C         46.45727        27.10705        -1.67784
C         47.83972        28.78673        -0.46205
C         46.51203        29.43721         0.06131
C         47.85414        31.58860         0.29612
C         46.56928        31.00408        -0.21584
C         47.89251        32.98249         0.73687
C         46.60006        33.68994         0.94102
C         47.83574        35.88516         1.06580
C         46.63312        35.12802         0.49386
C         47.81894        37.31121         0.65537
C         46.63941        37.90573        -0.04280
C         47.73958        40.11835         0.22839
C         46.58011        39.41675         0.06556
C         47.77750        41.55101        -0.14937
C         46.48051        42.25668        -0.25629
C         47.69731        44.40031        -0.77591
C         46.50253        43.75366        -0.00318
C         47.29232        45.44042        -1.50568
C         46.37918        46.07261        -2.21383
C         50.45797        28.97257        -0.47209
C         49.09323        29.60241        -0.63307
C         50.41734        31.66035         0.24492
C         49.13286        30.78683         0.36707
C         50.34031        32.99783         0.99390
C         49.16182        33.75379         0.29782
C         50.32016        35.99265         1.20311
C         49.16752        35.32088         0.46593
C         50.25800        37.36165         1.29312
C         48.93202        38.12580         1.20166
C         50.06674        40.37642         1.16165
C         49.08439        39.43397         0.42132
C         50.32745        41.66726         0.34777
C         49.07688        42.29047        -0.26472
C         50.08892        44.44788         0.24020
C         49.08228        43.81696        -0.71183
C         51.52710        29.54491        -0.24363
C         52.88367        31.72478         0.57549
C         51.78144        30.97820        -0.03615
C         52.69991        32.98826         0.75016
C         51.63928        33.82049         1.04099
C         52.69678        36.12663         1.65327
C         51.53510        35.16473         1.70711
C         52.52373        37.34215         1.85662
C         51.41500        38.22828         1.60926
C         52.35725        40.58036         1.79931
C         51.34240        39.59867         1.58595
C         52.39226        41.82677         1.71349
C         51.52024        42.53783         0.76082
C         51.13771        43.94822         0.65817
O         42.63167        31.81970         2.04891
O         38.73994        37.50647        -0.53791
O         32.22984        41.47935        -2.15181
O         43.90464        42.09551        -2.33719
O         43.60050        35.99283         2.35662
O         43.02915        28.77140         0.52849
O         51.04990        31.72754        -1.04443
O         40.99643        36.15727         3.17857
O         43.48128        37.11164        -0.99575
O         39.49235        30.20582        -2.42492
O         48.59604        41.56698        -1.43887
O         34.49227        35.83431         3.28208
O         45.05014        45.77685        -0.25548
O         47.40352        33.29803         2.11860
O         36.82670        32.28602        -1.14386
O         51.49150        41.84240        -0.51484
O         40.01367        46.85706         0.58876
O         31.81720        35.92911         2.92399
O         37.94562        40.37516        -1.33393
O         41.84135        31.33206        -1.60498
O         42.56217        39.84792        -1.98505
H         42.20745        38.93195        -2.10512
O         51.26388        34.91309         3.12051
H         52.10993        34.66233         3.54975
O         47.87923        35.82309         2.50565
H         47.74177        34.87642         2.77733
O         49.04640        30.14892        -1.96265
H         49.18240        29.42460        -2.60948
O         35.21687        38.29831         3.08903
H         34.72151        37.69194         3.69286
O         36.55712        34.66485         3.43067
H         37.49999        34.48359         3.68980
O         49.62947        39.09222        -0.85952
H         49.45459        39.84996        -1.47072
O         46.51340        31.16247        -1.65470
H         47.41586        30.97634        -2.02248
O         46.75881        43.91050         1.40875
H         46.57871        44.84451         1.64899
O         44.45361        33.50796         2.90716
H         44.05708        32.64761         3.17724
O         46.79788        34.98549        -0.94576
H         46.84460        35.89577        -1.35236
O         49.42746        40.90042         2.33513
H         49.07140        40.14423         2.86224
O         35.81053        31.41797         2.19785
H         35.22386        31.83654         2.88171
O         32.67200        38.91917        -1.33591
H         33.45892        38.97886        -1.92729
O         48.57591        38.43051         2.58901
H         48.31013        37.57053         3.00524
O         38.89985        39.99958         2.11222
H         39.65931        39.65457         2.64580
O         40.31693        27.36938        -0.28048
H         40.44367        26.40148        -0.36104
O         49.97073        32.70559         2.35310
H         50.21800        33.48129         2.92285
O         38.16256        28.55566         0.38391
H         37.45788        27.90524         0.59515
O         34.77767        33.85975        -0.39279
H         35.44422        33.53905        -1.05245
O         37.91732        45.86781         1.68420
H         38.07192        46.79753         1.95589
O         34.24708        33.27578         3.18345
H         34.76321        33.95500         3.69273
O         44.77561        41.04703        -2.82529
H         44.13683        40.28377        -2.88825
O         37.15754        28.89615        -3.13036
H         37.26373        28.31297        -3.90929
O         49.25508        33.50413        -1.10842
H         48.47446        33.94449        -1.52511
O         35.30863        39.30423        -1.53651
H         36.19702        39.46164        -1.94023
O         49.21758        35.88850        -0.86063
H         50.05785        35.61822        -1.28935
O         46.40640        29.32654         1.48035
H         46.25543        28.38887         1.72008
O         39.14812        34.70129         3.38488
H         39.89561        35.24076         3.82659
O         49.64405        43.88186        -1.99826
H         50.50038        43.40258        -1.99681
O         46.74125        37.62819        -1.49006
H         45.91224        37.94628        -1.90974
O         40.11105        32.35093         2.51947
H         39.97918        33.03553         3.22067
O         43.16637        41.47001         1.26738
H         42.86807        42.30789         1.68110
O         34.08993        40.42720         1.72262
H         34.51965        39.93995         2.46840
O         43.99856        45.08756        -3.35709
H         43.18300        45.00292        -3.89214
O         49.15963        30.18281         1.68238
H         49.17417        30.91054         2.34793
O         40.84122        38.37024         2.31908
H         41.07556        37.76826         3.09599
O         40.48934        44.50937         1.53822
H         39.74157        45.06080         1.87664
O         31.59571        40.31658         1.83486
H         30.83449        40.04577         2.38772
O         41.08457        37.41529        -1.19365
H         40.08599        37.51251        -1.30459
