         651
 CSIRO Nanostructure Databank - Neutral Graphene Oxide Data Set
C          6.28411        31.64205        -1.17921
C          6.29038        32.99319        -1.01369
C          8.75038        27.38038        -1.63140
C          8.72211        28.80215        -2.09694
C          7.49635        29.53862        -1.63138
C          8.71321        31.65158        -1.73611
C          7.48981        30.91155        -1.53342
C          8.64937        33.14309        -1.95490
C          7.46840        33.79137        -1.25057
C          8.63970        35.96485        -1.12048
C          7.48198        35.13201        -0.95100
C          8.62547        37.30343        -0.81196
C         11.05468        23.18005        -0.58260
C         11.05367        24.58320        -0.83910
C          9.89647        25.31151        -1.03755
C         11.20074        27.42610        -1.39199
C          9.92331        26.71538        -1.37050
C         11.21836        28.85072        -1.58706
C          9.99483        29.55397        -1.79403
C         11.18976        31.74875        -1.88653
C          9.93543        30.97219        -1.80580
C         11.14822        33.20641        -1.59954
C          9.94438        33.86030        -1.63807
C         11.14531        36.04363        -1.21877
C          9.89388        35.36603        -1.71235
C         11.10852        37.42611        -0.97491
C          9.81989        38.11017        -0.84487
C         10.96197        40.25785        -0.42418
C          9.77607        39.46218        -0.55762
C         10.91293        41.58155        -0.06864
C         13.38091        18.99019         0.43649
C         13.39832        20.38709         0.35791
C         12.23680        21.09193        -0.05214
C         13.40818        23.28393         0.26715
C         12.20817        22.48712        -0.18918
C         13.59185        24.55854        -0.51952
C         12.36073        25.26702        -1.00172
C         13.63479        27.42253        -0.97326
C         12.39659        26.73676        -1.14053
C         13.65573        28.85896        -1.12156
C         12.45724        29.54314        -1.46210
C         13.66887        31.76346        -1.25162
C         12.49830        30.99811        -1.70136
C         13.61528        33.20717        -1.19563
C         12.39465        33.91066        -1.34842
C         13.57372        36.04648        -0.84086
C         12.37431        35.33433        -1.15696
C         13.53377        37.45646        -0.62989
C         12.30945        38.13925        -0.73039
C         13.45575        40.28359        -0.06446
C         12.29538        39.64526        -0.78576
C         13.38523        41.62408         0.29614
C         12.11529        42.34478         0.20968
C         13.22452        44.47262         0.96932
C         12.04688        43.68161         0.48491
C         13.29065        45.86679         0.41512
C         15.68498        14.70002         1.04912
C         15.71108        16.11305         1.19383
C         14.51544        16.86395         0.92550
C         15.70372        18.99184         1.33109
C         14.51529        18.24880         0.85820
C         15.82128        20.42781         1.00252
C         14.64783        21.11463         0.59513
C         15.92119        23.20361         0.45005
C         14.69312        22.50136         0.37420
C         15.98531        24.62096         0.19410
C         14.81087        25.34291        -0.24476
C         16.09524        27.42587        -0.46287
C         14.80875        26.70670        -0.55080
C         16.12610        28.93401        -0.62021
C         14.84627        29.62342        -0.88366
C         16.02919        31.80476        -0.52088
C         14.81283        31.03798        -0.87980
C         16.09027        33.22410        -0.97943
C         14.81261        33.95552        -0.95844
C         16.05304        36.06107        -0.47691
C         14.82132        35.34598        -0.79215
C         15.98112        37.44402        -0.09102
C         14.73094        38.16364        -0.20417
C         15.78491        40.19033         0.79637
C         14.65045        39.52185         0.13207
C         15.82867        41.66095         0.80608
C         14.57852        42.35894         0.67229
C         15.75316        44.48833         0.96992
C         14.53753        43.74241         0.83687
C         15.70753        45.88953         0.86285
C         14.48531        46.58061         0.47427
C         15.71285        48.74329         0.31320
C         14.52225        47.97796         0.19954
C         15.72034        50.15689         0.13920
C         17.94939        10.74640         0.02364
C         18.08088        11.69019         1.22049
C         16.88474        12.59038         1.29888
C         18.19316        14.66253         0.68542
C         16.86892        13.93016         1.04763
C         18.20608        15.98632         1.56433
C         16.93423        16.76298         1.45762
C         18.28613        18.92507         1.88945
C         16.95713        18.20761         1.67717
C         18.27687        20.37764         1.42893
C         17.06019        21.09865         1.12569
C         18.32493        23.23334         1.00159
C         17.11502        22.50893         0.82480
C         18.39954        24.62963         0.78465
C         17.21480        25.28804         0.35890
C         18.49750        27.49193         0.47947
C         17.20925        26.75886         0.28542
C         18.52769        28.95918         0.22774
C         17.30275        29.65467        -0.13326
C         18.59451        31.83614        -0.35160
C         17.30869        31.11365        -0.16959
C         18.61414        33.19589        -0.48384
C         17.37445        33.96657        -0.77286
C         18.45334        36.03075         0.11378
C         17.29180        35.39615        -0.42316
C         18.37696        37.40121         0.50820
C         17.14184        38.08496         0.38807
C         18.34840        40.19773         1.12439
C         17.08526        39.44017         0.95651
C         18.30592        41.60898         1.09527
C         17.03616        42.33227         0.97498
C         18.22853        44.47416         0.92137
C         17.02595        43.78056         1.00575
C         18.26526        45.92809         1.04852
C         16.92203        46.67472         1.02454
C         18.13887        48.82975         0.77143
C         16.93156        48.09299         0.65021
C         18.08099        50.24761         0.74414
C         16.87366        50.91185         0.40451
C         17.96039        53.13066         0.54073
C         16.87069        52.35846         0.27899
C         17.86762        54.63868         0.41133
C         20.18475         6.76973        -1.97014
C         20.34940         8.03967        -1.15047
C         19.13386         8.76957        -1.08818
C         20.75251        10.32395         0.79088
C         18.82025         9.69095        -0.05776
C         20.65438        11.71005         0.98153
C         19.41736        12.43984         1.08887
C         20.66846        14.56442         0.87812
C         19.44398        13.83852         1.00600
C         20.62571        16.04602         0.77136
C         19.43558        16.80381         1.22141
C         20.74205        18.91153         1.31285
C         19.48863        18.16615         1.36586
C         20.75289        20.31791         1.49659
C         19.49895        21.03642         1.46120
C         20.82928        23.23962         1.52680
C         19.50283        22.51047         1.49373
C         20.88589        24.64628         1.09858
C         19.68087        25.34836         0.85833
C         21.01615        27.37353         0.34353
C         19.76518        26.73642         0.55781
C         21.02281        28.72645        -0.38831
C         19.85671        29.62830         0.03589
C         21.17224        31.76211        -0.33104
C         19.84288        31.04572        -0.44333
C         21.15399        33.24104        -0.11862
C         19.85999        33.98001        -0.33034
C         20.67403        35.84549         1.11518
C         19.67970        35.31668         0.28897
C         20.41995        37.11729         1.70094
C         19.47401        38.01784         1.20105
C         20.78042        40.22587         1.51617
C         19.56750        39.48993         1.33610
C         20.77429        41.64734         1.30975
C         19.53811        42.30937         1.06965
C         20.79321        44.53455         0.78692
C         19.49987        43.74385         0.73355
C         20.75965        46.00191         0.92022
C         19.47319        46.70061         0.54014
C         20.58754        48.91960         1.08808
C         19.40069        48.16796         0.91678
C         20.56514        50.31569         1.17821
C         19.26991        51.00722         1.14400
C         20.49095        53.37738         1.12727
C         19.20243        52.53652         1.09916
C         20.37425        54.63171         0.28075
C         19.18317        55.28229         0.03414
C         20.29878        57.27127        -0.95147
C         19.14877        56.56604        -0.60345
C         20.29199        58.48058        -1.70356
C         22.48657         4.21540        -3.59700
C         21.33798         4.90390        -3.18586
C         22.69624         6.48532        -1.94018
C         21.43953         6.04441        -2.37243
C         22.80483         7.58980        -0.96153
C         21.60217         8.39864        -0.59707
C         23.08809        10.28860         0.13709
C         21.84529         9.64828         0.13674
C         23.22907        11.68078         0.62545
C         21.92331        12.45551         0.98394
C         23.15713        14.60326         0.66261
C         21.91099        13.91000         0.82414
C         23.20444        16.01112         0.82943
C         21.95034        16.78426         0.81320
C         23.20456        18.86733         1.31643
C         21.97769        18.21162         1.18084
C         23.24389        20.27588         1.50996
C         22.00729        21.02571         1.53693
C         23.28944        23.15262         1.50393
C         22.05999        22.44035         1.49048
C         23.36009        24.54530         1.32306
C         22.14654        25.28947         1.00669
C         23.53475        27.28247         0.44987
C         22.20186        26.64265         0.57219
C         23.58720        28.76278         0.12065
C         22.40711        29.55357        -0.42780
C         23.42191        31.62733         0.67108
C         22.33520        30.97424         0.12777
C         23.32136        33.04945         1.03457
C         22.19379        33.79790         0.77413
C         23.23239        35.96753         1.71533
C         21.97379        35.15371         1.36075
C         23.27495        37.45787         1.69003
C         22.24637        38.18619         2.17025
C         23.34711        40.32892         1.71939
C         22.06920        39.66639         2.16498
C         23.28561        41.79681         1.77843
C         22.00146        42.44779         1.39449
C         23.22999        44.62856         1.28395
C         22.02120        43.82084         1.17540
C         23.18519        46.00816         1.34172
C         21.90888        46.69692         1.18500
C         23.14295        48.93539         1.06691
C         21.87692        48.17494         1.01581
C         23.11620        50.42015         1.27390
C         21.78609        51.15659         1.49548
C         22.87766        53.14278         0.34623
C         21.75954        52.55375         0.84301
C         22.84649        54.50802        -0.30178
C         21.63512        55.34379         0.05646
C         22.83316        57.27796        -1.16576
C         21.61094        56.72920        -0.55956
C         22.76974        58.47874        -1.85346
C         21.47625        59.10345        -2.10224
C         22.61449        60.91832        -3.26631
C         21.45114        60.33804        -2.83308
C         23.74193         4.68854        -3.24373
C         25.15876         6.43584        -2.25124
C         23.87462         5.84219        -2.42902
C         25.32074         7.67117        -1.60935
C         24.19856         8.17818        -0.77679
C         25.57612        10.33892        -0.47696
C         24.31205         9.56880        -0.24426
C         25.46050        11.82720        -0.53681
C         24.34254        12.49957         0.12458
C         25.56065        14.66978         0.03921
C         24.36146        13.89757         0.30032
C         25.58566        16.04428         0.38017
C         24.42725        16.69920         0.84583
C         25.72230        18.89650         1.07303
C         24.49600        18.08631         1.44533
C         25.71952        20.26932         1.33414
C         24.49649        20.93654         1.62760
C         25.78413        23.10917         2.15275
C         24.48346        22.38710         1.90848
C         25.81501        24.53739         1.77979
C         24.64539        25.22099         1.41128
C         25.94428        27.30791         1.06753
C         24.71941        26.62682         1.07509
C         25.98537        28.75429         0.72503
C         24.73392        29.53308         0.63505
C         25.88306        31.60298         1.31207
C         24.68013        30.89438         0.88567
C         25.82004        33.04555         1.69951
C         24.50264        33.75107         1.61689
C         25.79429        36.00449         1.41100
C         24.51344        35.24546         1.41346
C         25.78281        37.48329         1.77726
C         24.50383        38.16885         1.11778
C         25.79243        40.37582         1.35319
C         24.52002        39.66218         1.47443
C         25.82570        41.76651         1.39771
C         24.57632        42.53182         1.60925
C         25.79316        44.68475         1.32248
C         24.53337        43.91310         1.01532
C         25.74206        46.05715         1.39449
C         24.44471        46.79664         1.70229
C         25.57362        48.93100         0.89057
C         24.44029        48.23222         1.20332
C         25.54248        50.31720         0.45269
C         24.31549        51.10607         0.72484
C         25.40325        53.17454        -0.17809
C         24.11903        52.36889        -0.07217
C         25.40916        54.51761        -0.34918
C         24.15687        55.33615        -0.12535
C         25.35545        57.45189        -0.93338
C         24.14394        56.52160        -1.13314
C         25.36044        58.55933        -2.01265
C         23.98162        59.13593        -2.30234
C         23.88300        60.32404        -2.98678
C         26.50569         8.41457        -1.77735
C         27.85419        10.45589        -1.41594
C         26.69371         9.72752        -1.25779
C         28.01289        11.77198        -0.69875
C         26.73302        12.59117        -0.76692
C         27.98950        14.67217        -0.48669
C         26.77305        14.01570        -0.38696
C         28.03033        16.13486        -0.36962
C         26.77778        16.86220         0.08170
C         28.15498        18.87843         0.62258
C         26.91011        18.23561         0.62666
C         28.26379        20.26593         1.06188
C         26.98292        21.10682         1.12788
C         28.37717        22.98532         2.17901
C         27.04079        22.20170         2.21879
C         28.40108        24.49505         2.10090
C         27.08815        25.26490         1.90314
C         28.41018        27.33522         1.51407
C         27.15892        26.66251         1.45064
C         28.44993        28.77199         1.44664
C         27.23180        29.52236         1.06236
C         28.31069        31.67979         1.79471
C         27.08736        30.94932         1.39914
C         28.28974        33.15858         1.68576
C         27.09487        33.83563         1.66426
C         28.23895        36.02274         1.35482
C         27.08385        35.28089         1.55171
C         28.18064        37.44991         1.10157
C         27.04230        38.18624         1.34024
C         28.26121        40.33216         1.22512
C         27.05063        39.64561         1.26209
C         28.32231        41.77859         1.26411
C         27.05492        42.51947         1.32042
C         28.30086        44.65950         1.50542
C         27.02572        43.91979         1.36222
C         28.30647        46.14813         1.35303
C         26.98189        46.86308         1.40720
C         28.07327        48.97639         0.44769
C         26.90542        48.32063         1.07349
C         27.95290        50.26017        -0.02964
C         26.68481        50.96992         0.05783
C         27.91520        53.10888        -0.32694
C         26.60210        52.34420        -0.58678
C         27.84116        54.51972        -0.81738
C         26.64496        55.24699        -0.70882
C         26.61583        56.62151        -0.98244
C         29.20689        12.59240        -1.08730
C         30.42063        14.71873        -0.92050
C         29.21850        13.96531        -0.84117
C         30.50042        16.08368        -0.53406
C         29.31685        16.81031        -0.20338
C         30.62768        18.76422         0.36810
C         29.36623        18.15006         0.25302
C         30.79613        20.07724         1.08360
C         29.49144        20.83615         1.28781
C         30.90319        22.99767         1.60854
C         29.61277        22.23446         1.80194
C         30.86811        24.46860         1.60288
C         29.66359        25.17996         1.72226
C         30.88460        27.33677         1.51801
C         29.65013        26.61577         1.64055
C         30.89102        28.76461         1.49353
C         29.63933        29.46895         1.55324
C         30.91422        31.71633         1.61737
C         29.61223        30.93810         1.78000
C         30.68599        33.08290         0.91399
C         29.58213        33.87122         1.59676
C         30.67931        35.98744         0.62740
C         29.55544        35.35755         1.37443
C         30.65227        37.40916         0.45101
C         29.37023        38.19570         0.54123
C         30.74196        40.27243         0.72061
C         29.55665        39.53651         1.27958
C         30.87142        41.69815         1.15977
C         29.54775        42.43812         1.24332
C         30.81446        44.64639         0.87777
C         29.60050        43.90766         1.37004
C         30.49759        45.88736         0.01142
C         29.55871        46.88088         0.81389
C         30.33350        48.78512        -0.65836
C         29.14378        48.07120        -0.08608
C         30.27345        50.14324        -0.93154
C         29.11482        50.94163        -0.62029
C         29.09272        52.30304        -0.80709
C         31.73773        16.76899        -0.52120
C         33.03279        18.84191        -0.22963
C         31.80275        18.10830        -0.10334
C         33.07078        20.22323        -0.08881
C         31.79290        20.95203         0.28289
C         33.21609        23.03347         0.44933
C         32.09053        22.26857         0.97644
C         33.35851        24.41171         0.85221
C         32.13786        25.18917         1.45212
C         33.29810        27.37194         1.00758
C         32.12610        26.66165         1.32987
C         33.29085        28.79915         0.91624
C         32.08277        29.47142         1.22328
C         33.05274        31.60601         0.16604
C         31.94015        30.89992         0.85643
C         33.06687        33.06863         0.05378
C         32.02246        33.87617         0.78357
C         32.80064        35.92204        -0.60071
C         31.76334        35.24633         0.19995
C         32.94421        37.37757        -0.39216
C         31.85132        38.07951         0.15166
C         33.19109        40.23870        -0.05205
C         32.04016        39.49705         0.64510
C         33.17842        41.75926        -0.13273
C         31.96185        42.45070         0.40853
C         33.20197        44.72020        -1.10129
C         31.96686        43.79637         0.51575
C         32.64284        45.96570        -1.48946
C         31.62340        46.63130        -0.75333
C         31.45061        47.99525        -1.03758
C         34.22187        20.97513        -0.40598
C         35.50454        23.09154        -0.50942
C         34.29188        22.38357        -0.23032
C         35.63846        24.47304        -0.29214
C         34.41048        25.19241         0.14266
C         35.75681        27.32623         0.26278
C         34.42986        26.66225         0.35085
C         35.72489        28.85219         0.25231
C         34.42824        29.53537         0.41403
C         35.41582        31.59032        -0.54381
C         34.32911        30.88355        -0.00111
C         35.23856        32.88953        -1.20958
C         33.86688        33.58216        -1.11818
C         35.19267        35.83700        -1.50615
C         33.92186        35.11800        -1.22217
C         35.07674        37.29995        -1.71088
C         34.03645        38.07313        -0.99469
C         35.21047        40.19767        -1.51879
C         34.11337        39.46937        -0.92005
C         35.05423        41.61569        -1.73582
C         34.02558        42.37646        -1.21633
C         33.78426        43.68194        -1.80782
C         36.79643        25.21684        -0.58783
C         38.02975        27.36981        -0.69744
C         36.89428        26.62588        -0.38094
C         38.04821        28.81805        -0.70422
C         36.84916        29.52070        -0.37635
C         37.94569        31.72152        -1.01137
C         36.74674        30.96956        -0.53873
C         37.81104        33.12218        -1.43414
C         36.49214        33.71482        -1.59696
C         37.64014        35.93339        -1.90162
C         36.39316        35.19139        -1.70434
C         37.61903        37.31725        -2.02687
C         36.37742        38.07548        -2.07273
C         36.36002        39.53131        -1.91829
C         39.18933        29.53022        -1.12117
C         40.36501        31.81728        -1.43980
C         39.12153        30.96151        -1.58457
C         40.27547        33.16333        -1.51408
C         38.98990        33.86650        -1.62893
C         38.89743        35.24229        -1.87436
O         18.98788        51.84682         2.35450
O         33.24319        24.69926         2.27593
O         27.72920        25.09694         3.24202
O         20.64180        31.31957        -1.61978
O         17.55498        27.28715         1.60780
O         24.59068        38.06843        -0.24737
O         20.90036        33.97836        -1.36454
O         30.58095        44.54867         2.29879
O         35.37493        37.66530        -3.08046
O         22.54783        48.57695        -0.25741
O         19.33363        29.56623         1.37391
O         16.90941        33.57584        -2.13518
O         12.01115        31.40888        -3.04368
O         24.99725        33.28412         2.90487
O         17.67934        46.42555         2.27619
O         31.87881        30.98065        -0.61594
O         19.66768         9.50305         1.08130
O         33.95954        41.06857         0.89614
O         28.42537        45.54332         2.68199
O         23.98279        42.41248         2.93209
O         23.88290        51.94228        -1.42685
O         27.13929        16.81232        -1.34165
O         27.05396        47.88131         2.48389
O         22.85492        11.95682         2.00614
O         13.24413        24.51970        -1.93069
O         29.24272        22.44570         3.22196
O         37.73886        31.62952         0.44240
O         24.89667        22.79777         3.27374
O         22.47039        35.29058         2.73539
O         35.71877        32.92673        -2.58071
O         26.91400        29.16222        -0.34130
O         24.09408        51.01810         2.18814
O         29.93541        34.76485         2.67822
O         21.22470        16.56717        -0.45651
O         25.12756        35.65696         0.15187
O         23.94191        27.75058        -0.89577
O         21.18022        37.51900         2.80381
O         21.78389        56.51946         0.91550
O         36.10954        28.04938         1.45328
O         23.66238         7.22598         0.18442
O         16.00642        18.64595         2.73243
O         28.43286        47.40826        -1.27355
O         16.41850        31.71313         0.89321
O         20.03946        23.04304         2.75938
O         16.15177        39.57137         2.08896
O         18.19734        14.92946        -0.63874
O         28.95022        31.23415         3.06692
O         20.22540        44.07614        -0.50511
O         32.81664        35.59167        -2.06448
O         25.34807         9.74305         0.82031
O         33.93827        26.08939        -0.92791
O         25.83299        12.33044        -1.87590
O         31.94889        22.36201         2.42961
O         16.51811        27.99060        -1.73277
O         33.13631        44.50933         0.28567
O         24.64168        17.82529         2.88976
H         24.77545        18.68945         3.33649
O         16.83300        55.00727        -0.50240
H         17.11536        54.76135        -1.40681
O         29.83100        39.26537         2.69009
H         30.77820        38.97107         2.74579
O         24.54891        43.69710        -0.43303
H         24.46066        44.56561        -0.87929
O         18.48923        18.96885         3.33436
H         17.62896        19.24486         3.72785
O         31.35385        41.63781         2.55752
H         30.68677        41.11061         3.05947
O          8.41230        33.31940        -3.39203
H          8.64480        34.25950        -3.60018
O         38.84298        30.87723        -3.02594
H         39.61191        30.45216        -3.46044
O         20.62680        53.87267         2.48298
H         20.68420        53.06947         3.05852
O          8.61617        28.75517        -3.57898
H          8.67950        29.67990        -3.90325
O         30.13894        32.87423        -0.39866
H         30.73981        32.25676        -0.89560
O         24.25841        55.82008         1.23363
H         23.37777        56.20388         1.48740
O         27.96162        48.43366        -2.16852
H         28.79086        48.83858        -2.52567
O         32.58321        34.16150         2.10043
H         32.28129        33.45684         2.72996
O         25.31703        58.10086         0.35148
H         25.13140        57.39210         1.02162
O          9.81841        35.67050        -3.16684
H         10.67151        35.39116        -3.56510
O         18.34275        15.50548         2.92830
H         18.31107        16.28378         3.52633
O         24.42419        46.90306         3.16222
H         25.28919        47.30146         3.42382
O         31.36156        19.75701         2.37126
H         31.51577        20.60829         2.85180
O         12.50629        39.96916        -2.21041
H         11.75433        39.58613        -2.71056
O         22.63983        54.21014        -1.71832
H         23.05943        53.29695        -1.87990
O         31.11199        21.29870        -0.95738
H         31.78714        21.55789        -1.61942
O         24.35044        55.98641        -2.46914
H         23.67449        55.26489        -2.59181
O         31.44702        31.92667         2.94350
H         30.67311        31.95519         3.55852
O         20.71192        28.35968        -1.74590
H         21.16939        29.02456        -2.32411
O         19.36400        46.68096        -0.91496
H         20.23976        46.91072        -1.29247
O         19.42176         7.09016        -3.14343
H         19.43576         6.31915        -3.74597
O         21.90834        40.05145         3.56814
H         21.34124        39.36731         3.98797
O         18.06033        10.97229         2.46867
H         18.69910        10.22331         2.40077
O         26.44166        52.11506        -1.99752
H         25.45924        51.90832        -2.10679
O         26.86205        21.80180        -0.14157
H         26.86616        21.13518        -0.86092
O         28.16045        11.47151         0.73782
H         28.93099        10.87542         0.84635
O         25.64679        37.57071         3.19961
H         25.91375        38.46506         3.49879
O         13.00200        44.66279         2.42566
H         13.80014        45.10804         2.78424
O         29.73461        45.23942        -1.04347
H         29.42368        45.92416        -1.68258
O         22.71957        29.77618        -1.82310
H         23.31607        29.04626        -2.11046
O         26.98897        21.46905         3.44327
H         27.09971        22.09557         4.18868
O         21.69423        51.39706         2.93323
H         22.61477        51.59212         3.23404
O         33.13720        33.09452        -2.27614
H         32.55579        33.83329        -2.57980
O         29.03893        38.56869        -0.82936
H         28.62053        37.80168        -1.27393
O         25.92804        58.04896        -3.22575
H         25.42618        57.22913        -3.44797
O         30.29445        47.40710         1.91428
H         30.19969        46.76776         2.65859
O         27.99340        53.20370         1.13490
H         28.82967        53.65785         1.36939
O         32.47614        39.27901         2.03683
H         32.88128        40.13798         2.32139
O         13.10833        23.73402         1.63054
H         13.02342        22.93955         2.19901
H          5.36579        31.06488        -0.99851
H          5.37886        33.50917        -0.67510
H          7.79642        26.83267        -1.59235
H          6.55900        28.97539        -1.50606
H          6.57930        35.59339        -0.51846
H          7.69122        37.77343        -0.46739
H         10.11399        22.62191        -0.70988
H          8.91775        24.81420        -0.96172
H          8.80305        39.94142        -0.36760
H          9.93974        42.07382         0.08388
H         12.46196        18.44755         0.17003
H         11.33677        20.51126        -0.30601
H         11.07318        44.19427         0.45310
H         12.35591        46.38604         0.15538
H         14.72742        14.21619         0.79772
H         13.60673        16.31022         0.64730
H         13.58360        48.48781        -0.06314
H         14.78932        50.66912        -0.14513
H         17.32332        11.02935        -0.83288
H         15.99342        12.13145         1.75846
H         15.94946        52.84594        -0.07549
H         17.56040        55.04025         1.41691
H         19.57014         6.05706        -1.33155
H         18.36707         8.52457        -1.83765
H         18.16288        56.98859        -0.84824
H         19.32669        58.93362        -1.97561
H         22.38964         3.31539        -4.21943
H         20.34645         4.53388        -3.48737
H         22.58337        61.86583        -3.82269
H         20.48005        60.81215        -3.03684
H         24.64815         4.18150        -3.60397
H         26.01538         5.99508        -2.78297
H         26.02857        59.38803        -1.66249
H         24.79599        60.83843        -3.31925
H         27.32014         7.96610        -2.36625
H         28.70003        10.03249        -1.97862
H         28.74388        55.01524        -1.21244
H         27.57197        57.14412        -1.14889
H         30.14752        12.08134        -1.34322
H         31.34728        14.20253        -1.21271
H         31.15198        50.64100        -1.37090
H         29.96993        52.81575        -1.23341
H         32.65088        16.25282        -0.85036
H         33.93164        18.30680        -0.57118
H         33.03971        46.47477        -2.38300
H         32.25179        48.49959        -1.60148
H         35.12059        20.44223        -0.75036
H         36.36334        22.52016        -0.89074
H         35.74835        42.08733        -2.44767
H         34.07228        43.82638        -2.86010
H         37.66863        24.69212        -1.00596
H         38.91316        26.84691        -1.09332
H         38.56739        37.87447        -1.99124
H         37.25237        40.10500        -2.20965
H         40.09941        28.96013        -1.36856
H         41.34938        31.33006        -1.36357
H         41.18784        33.77856        -1.48493
H         39.81545        35.83141        -2.01643
