         324
 CSIRO Nanostructure Databank - Neutral Graphene Oxide Data Set
C          1.24717         2.01077        -0.18580
C          1.18689         3.38461        -0.12915
C          2.46327         1.30324        -0.04624
C          2.34320         4.17127         0.29981
C          1.20444         6.38121         0.02554
C          1.21388         7.76793         0.08453
C          2.39325         5.64644         0.15324
C          2.42062         8.46827         0.28816
C          1.25100        10.62786         0.68791
C          1.24366        12.03246         0.79061
C          2.42493         9.92380         0.44917
C          2.40104        12.77882         0.60938
C          1.17767        14.98798         0.87686
C          1.17964        16.37451         1.03559
C          2.37871        14.24696         0.62876
C          2.34725        17.12292         0.83603
C          2.42035        18.55878         0.92362
C          3.68784         1.97946         0.08659
C          3.68316         3.42518         0.38667
C          4.92267         1.32502        -0.04613
C          4.92428         4.20079         0.19949
C          3.63312         6.33485         0.26160
C          3.63306         7.75145         0.32139
C          4.89935         5.60870         0.22742
C          4.91914         8.48654         0.61954
C          3.66458        10.64410         0.33514
C          3.64326        12.08494         0.35660
C          4.89100         9.95184         0.25137
C          4.84879        12.78682         0.18109
C          3.56059        14.94300         0.40382
C          3.53594        16.40317         0.37166
C          4.89514        14.25451         0.51787
C          4.81681        17.16095         0.21229
C          3.60036        19.23889         0.86049
C          4.92717        18.51984         0.86896
C          6.14795         2.04157        -0.03485
C          6.14108         3.48935         0.01745
C          7.37093         1.35744        -0.11725
C          7.36364         4.20068        -0.11509
C          6.13007         6.34102         0.06887
C          6.14079         7.76062         0.11899
C          7.35384         5.63026        -0.13426
C          7.32604         8.48195        -0.14133
C          6.10679        10.64750         0.02505
C          6.07247        12.09643        -0.05165
C          7.33372         9.93155        -0.15280
C          7.25701        12.83717        -0.30971
C          6.04829        14.99094        -0.12393
C          6.07888        16.42241        -0.05656
C          7.18875        14.25823        -0.46974
C          7.18399        17.19736        -0.39643
C          6.10276        19.28664         0.31024
C          7.18607        18.64502        -0.21602
C          8.60710         2.05151        -0.14847
C          8.60104         3.49027        -0.18841
C          9.83346         1.36106        -0.13954
C          9.82806         4.20020        -0.25580
C          8.56739         6.34822        -0.36822
C          8.52006         7.76224        -0.44522
C          9.82129         5.63036        -0.41234
C          9.69029         8.50434        -0.89894
C          8.57535        10.63602        -0.34352
C          8.56286        12.12152        -0.20328
C          9.74165         9.95982        -0.70395
C          9.85443        12.88628        -0.32807
C          8.36450        15.01077        -0.96469
C          8.35796        16.52891        -0.98382
C          9.69990        14.32054        -0.79933
C          9.66268        17.33008        -1.08056
C          8.40531        19.47244        -0.63039
C          9.71845        18.71508        -0.55214
C         11.06435         2.06165        -0.11068
C         11.06203         3.49820        -0.17885
C         12.29362         1.38028        -0.01575
C         12.30430         4.20744        -0.11139
C         11.05290         6.30559        -0.53073
C         11.06360         7.70213        -0.95223
C         12.30569         5.64836        -0.30871
C         12.32020         8.43043        -0.95588
C         11.07786        10.61557        -0.78097
C         11.16040        12.11075        -0.55446
C         12.27673         9.87594        -1.42570
C         12.37969        12.80674        -1.08930
C         10.77464        15.25902        -0.49781
C         10.90002        16.55660        -0.86227
C         12.55960        14.12561        -0.79638
C         12.21909        17.25241        -0.77218
C         10.88241        19.26703        -0.09515
C         12.20215        18.63164        -0.20849
C         13.52194         2.07930         0.12329
C         13.50718         3.52045         0.09476
C         14.71976         1.34211         0.21373
C         14.72979         4.34286         0.45758
C         13.52336         6.35330        -0.44692
C         13.51172         7.74642        -0.78172
C         14.80563         5.67209        -0.28458
C         14.76105         8.43888        -1.30526
C         13.57420        10.57586        -1.05830
C         13.63050        12.03769        -1.27531
C         14.73085         9.88934        -0.85817
C         14.91280        12.79336        -0.96434
C         13.65663        15.02224        -1.12202
C         13.53897        16.50071        -0.84639
C         14.96630        14.29165        -0.94074
C         14.76861        17.18007        -0.38788
C         13.38650        19.26083         0.04564
C         14.73028        18.68831        -0.41134
C         16.01688         1.96282         0.43063
C         16.02670         3.53848         0.47573
C         17.26226         1.27962         0.11408
C         17.27114         4.14131         0.03143
C         15.99643         6.27364        -0.58474
C         16.13643         7.70765        -1.10435
C         17.30084         5.50238        -0.62368
C         17.21120         8.44666        -0.28433
C         15.89355        10.55616        -0.22343
C         15.95288        12.08015        -0.16865
C         17.13666         9.80677        -0.00894
C         17.18690        12.83111         0.14892
C         15.89466        14.96159         0.05567
C         15.93782        16.47251        -0.09791
C         17.21474        14.21828         0.15414
C         17.10067        17.14486         0.35828
C         15.96055        19.31126         0.18310
C         17.12802        18.58942         0.40945
C         18.47427         1.96627         0.09841
C         18.44116         3.41685         0.00229
C         19.73042         1.26567         0.01323
C         19.69832         4.16480        -0.21450
C         18.48144         6.30511        -0.08737
C         18.39065         7.69899         0.05856
C         19.69902         5.61623         0.10050
C         19.57512         8.40870         0.58745
C         18.28905        10.55774         0.55799
C         18.34558        12.07246         0.63202
C         19.60486         9.88098         0.37000
C         19.64980        12.78923         0.75098
C         18.37842        14.91877         0.60556
C         18.27139        16.37450         0.80214
C         19.59754        14.24450         0.84942
C         19.61530        17.15582         0.91378
C         18.39736        19.27267         0.52235
C         19.60636        18.59194         0.57663
C         20.96294         1.91743        -0.00884
C         20.97516         3.39964        -0.10544
C         22.21896         1.26525        -0.10738
C         22.15841         4.11482         0.43280
C         20.93137         6.26734         0.43966
C         20.89365         7.71082         0.77199
C         22.13966         5.57954         0.52461
C         22.15518         8.51437         0.73930
C         20.87937        10.63851         0.47068
C         20.83466        12.08385         0.80569
C         22.14631         9.87726         0.65717
C         22.10624        12.73507         1.16814
C         20.81855        14.98694         0.97550
C         20.85564        16.38082         0.80905
C         22.08995        14.29100         1.22285
C         22.09342        17.06742         0.60231
C         20.86387        19.21300         0.33368
C         22.06542        18.49627         0.33704
C         23.44776         1.97107        -0.08435
C         23.46817         3.37119         0.40975
C         24.66790         1.39148        -0.43916
C         24.70690         4.17091         0.35130
C         23.40321         6.23490         0.92163
C         23.42398         7.77544         0.95723
C         24.69253         5.55367         0.65281
C         24.70874         8.44619         0.76621
C         23.40580        10.65830         0.54225
C         23.39593        12.08793         0.91251
C         24.72515         9.90155         0.56259
C         24.58518        12.81170         1.05088
C         23.35978        14.96988         0.95300
C         23.31987        16.36766         0.63163
C         24.56727        14.25107         1.04561
C         24.56045        17.06836         0.36420
C         23.29279        19.15702         0.03580
C         24.50752        18.48545         0.02545
C         25.89215         2.12316        -0.39789
C         25.90500         3.51607         0.00441
C         27.09620         1.51361        -0.77617
C         27.13080         4.23801         0.06769
C         25.90849         6.29088         0.68946
C         25.91571         7.74116         0.82133
C         27.13984         5.61616         0.44736
C         27.16667         8.46288         0.85896
C         25.95521        10.61836         0.90283
C         25.87344        12.06136         1.19634
C         27.16617         9.90516         0.99107
C         27.19104        12.81888         1.28726
C         25.83093        15.03579         1.01224
C         25.77256        16.41972         0.46492
C         27.15596        14.32551         1.15791
C         27.07716        17.17576         0.30317
C         25.71489        19.17495        -0.31008
C         26.94790        18.55402        -0.36072
C         28.32306         2.21676        -0.73076
C         28.34337         3.57643        -0.28117
C         29.54529         1.59708        -1.11028
C         29.57807         4.26833        -0.15912
C         28.39219         6.31308         0.57306
C         28.39734         7.74688         0.82473
C         29.59014         5.60500         0.35348
C         29.62435         8.46304         0.88835
C         28.42804        10.61630         1.04909
C         28.44463        12.06878         0.98590
C         29.63437         9.88552         0.96139
C         29.59766        12.74643         0.63324
C         28.39017        15.00949         0.62889
C         28.17329        16.23014        -0.17559
C         29.61150        14.19703         0.33396
C         29.11915        16.54006        -1.10423
C         28.10699        19.33777        -0.71409
C         29.17878        18.74806        -1.38744
C         30.74193         2.28457        -1.02355
C         30.78660         3.61129        -0.53351
C         32.04180         4.29975        -0.38586
C         30.89319         6.20917         0.66326
C         30.90455         7.73203         0.94049
C         32.10685         5.52357         0.19880
C         32.14760         8.47822         0.66951
C         30.93663        10.59181         0.94743
C         30.91780        12.10301         0.67631
C         32.15139         9.81842         0.62343
C         32.03483        12.77033        -0.01576
C         30.64960        14.70479        -0.60070
C         30.43664        15.94580        -1.22745
C         31.87507        13.95908        -0.66462
C         31.46661        16.74078        -1.83919
C         30.53393        19.09036        -1.54127
C         31.50452        18.13457        -1.92987
O         10.24957         7.99669        -2.13418
O         14.62138        12.32615        -2.31713
O          2.92245         3.75334         1.58894
O          8.82678        17.11367        -2.24871
O         23.36037         6.96191         2.18542
O          9.29880        12.64879         0.99049
O         15.29518        14.76820         1.32531
O         31.19488        11.55101         2.01303
O          9.07117        14.44856        -2.10728
O         18.81374        16.83416         2.07789
O         11.44497        11.18241         0.52831
O         20.27086        10.31305        -0.86045
O         11.79245        14.67869         0.23888
O         14.58615        14.82628        -2.22687
O         16.12750         2.76101         1.68558
O         29.50848        15.03613         1.57246
O         31.00282         6.75817         2.02147
O         28.82479        17.54062        -2.02931
O         22.07391        13.47044         2.42514
O         22.70209         3.51519         1.65784
O         24.11295        10.36970        -0.72490
O         15.44662        11.31554         0.96341
O         14.47112         8.44411        -2.70743
O         20.02098         8.00571         1.92164
O         26.58789        14.99915         2.31721
O         12.95762        17.18444        -2.04574
O         26.53717        12.35461         2.49150
O          3.97161        17.06047        -0.95956
O         20.51090         3.86015        -1.41461
O         18.07864        11.22419         1.82537
O         12.14501         9.88275        -2.85411
H         12.94624         9.37724        -3.17412
O         27.49425        17.53750         1.65879
H         27.37703        16.73371         2.22675
O         14.82409        19.08272        -1.83598
H         14.14202        18.53657        -2.30880
O         17.57064         5.21462        -2.02337
H         17.42657         6.06867        -2.51512
O          5.24364        18.24902         2.27670
H          5.28255        19.10684         2.74897
O         14.49298         4.74959         1.84400
H         14.79963         4.00546         2.41258
O          5.18350        14.30651         1.97412
H          5.97670        13.75038         2.13543
O          8.46082        20.68538         0.11471
H          8.59140        20.46457         1.05932
O          5.04508         8.47959         2.09313
H          5.02803         7.54237         2.38354
O         16.75116         7.65680        -2.41901
H         16.00004         7.92343        -3.03953
H          0.33958         1.44512        -0.44108
H          0.26261         3.89721        -0.42978
H          2.46818         0.21250        -0.18390
H          0.24382         5.85927        -0.07926
H          0.26248         8.30939         0.00254
H          0.29837        10.09598         0.81155
H          0.28544        12.52863         0.99379
H          0.22995        14.45273         1.02245
H          0.24747        16.88679         1.31521
H          1.47759        19.11601         1.03819
H          4.94376         0.23384        -0.18611
H          3.60145        20.33746         0.93388
H          7.37251         0.25742        -0.13559
H          6.14384        20.37776         0.45799
H          9.83705         0.26166        -0.10825
H          8.26343        19.76079        -1.70844
H         12.30075         0.28075         0.01098
H         10.85514        20.30044         0.28671
H         14.68542         0.25743         0.03025
H         13.38093        20.30606         0.39382
H         17.23492         0.19991        -0.09384
H         16.00696        20.41155         0.19373
H         19.70751         0.16531         0.02836
H         18.40424        20.36286         0.37283
H         22.24088         0.17614        -0.26649
H         20.88633        20.28909         0.10550
H         24.69201         0.34579        -0.78061
H         23.27006        20.23333        -0.19128
H         27.09133         0.46274        -1.10141
H         25.63047        20.22452        -0.63242
H         29.52844         0.55871        -1.47081
H         28.11173        20.41355        -0.47774
H         31.68156         1.79456        -1.31682
H         32.96231         3.78834        -0.70301
H         33.08535         5.98292         0.39169
H         33.08697         7.92486         0.53982
H         33.09578        10.35968         0.47670
H         33.01835        12.28191        -0.02398
H         32.72278        14.37956        -1.22429
H         32.41528        16.22907        -2.06481
H         30.87258        20.11162        -1.31391
H         32.48752        18.55046        -2.20703
