         720
 CSIRO Nanostructure Databank - Neutral Graphene Oxide Data Set
C         23.09187        27.62216         2.11418
C         23.04256        28.87447         1.61743
C         23.05487        31.77653         0.49730
C         23.03604        32.95401        -0.15399
C         22.96744        35.92805        -0.59561
C         22.99187        37.21930        -0.15744
C         23.10181        40.04413         0.90994
C         23.10257        41.40672         1.11457
C         22.97378        44.39146         0.89468
C         22.95357        45.77340         0.79684
C         25.73791        24.92957         2.85618
C         24.49721        25.55566         2.79936
C         25.64762        27.72061         2.20807
C         24.37583        26.99159         2.51621
C         25.58908        28.88541         1.27148
C         24.25701        29.54567         1.06515
C         25.42607        31.41217        -0.18190
C         24.33789        31.06619         0.86134
C         25.57852        32.95892        -0.35171
C         24.23736        33.65044        -0.68882
C         25.42072        36.00265        -1.09046
C         24.18029        35.17350        -0.98749
C         25.33068        37.51875        -0.97491
C         24.18397        38.03371        -0.13167
C         25.52724        40.05211         0.44380
C         24.23247        39.33145         0.37765
C         25.53979        41.56034         0.72384
C         24.23631        42.24810         0.85387
C         25.37252        44.37339         0.12866
C         24.16496        43.64147         0.70150
C         25.35094        45.87775         0.29633
C         24.12510        46.53152         0.51951
C         25.15892        48.71507         0.15327
C         24.08687        47.98276         0.51937
C         28.32856        23.51511         2.26919
C         28.29168        24.88060         2.92133
C         26.96763        25.58511         2.66031
C         28.22956        27.71762         1.99817
C         26.96591        27.03135         2.42753
C         28.13727        28.95273         1.17222
C         26.85454        29.58558         0.89905
C         27.94822        31.22943        -0.55871
C         26.75894        30.73391         0.14197
C         27.90635        32.54461        -1.21873
C         26.68798        33.20436        -1.34819
C         27.86276        36.18332        -1.55398
C         26.58152        35.50736        -1.61398
C         27.85431        37.50591        -1.01959
C         26.66688        38.16498        -0.69038
C         27.93023        40.24400        -0.21808
C         26.73143        39.48034        -0.16889
C         27.92066        41.67492        -0.00013
C         26.74816        42.31463         0.36178
C         27.88898        44.54490         0.08064
C         26.69371        43.79542         0.62358
C         27.78305        45.94119        -0.09666
C         26.53822        46.60456         0.04387
C         27.69763        48.84721         0.04804
C         26.43699        48.07650        -0.31948
C         27.73805        50.11082         0.56510
C         30.78244        23.48725         2.08497
C         29.48413        22.89885         1.90649
C         30.84068        24.87677         2.68395
C         29.53709        25.64882         2.47298
C         30.70193        27.67067         1.62621
C         29.50111        26.92707         1.98467
C         30.60568        28.91238         1.03931
C         29.32531        29.50393         0.72192
C         30.46279        31.55272        -0.30370
C         29.30846        30.64602        -0.20741
C         30.35377        32.78881        -0.94965
C         29.12992        33.18345        -1.56251
C         30.34389        36.19309        -1.80038
C         29.08869        35.56631        -1.91065
C         30.40465        37.44196        -1.01311
C         29.12545        38.15644        -0.67932
C         30.36509        40.33645        -0.71553
C         29.16187        39.61935        -0.54248
C         30.38424        41.76916        -0.54051
C         29.14910        42.43140        -0.21209
C         30.36557        44.60070        -0.13224
C         29.09723        43.83879        -0.14255
C         30.29763        46.08336        -0.21601
C         28.97193        46.70016        -0.65297
C         30.25006        48.92973        -0.11049
C         28.95754        48.20860        -0.38435
C         30.18816        50.30512         0.41539
C         28.96651        50.84968         0.71270
C         33.14813        20.63795         1.60513
C         31.98663        21.35647         1.70398
C         33.26440        23.46621         1.87023
C         31.98037        22.78115         1.89707
C         33.32179        24.88345         1.90448
C         32.10633        25.64133         2.27771
C         33.22611        27.74044         1.26011
C         32.04058        27.09516         1.88472
C         33.13491        29.06129         0.85535
C         31.82490        29.74781         0.88754
C         33.03354        31.93973         0.08985
C         31.72180        31.15979         0.36834
C         32.85924        33.11848        -0.91771
C         31.50021        33.70865        -0.55827
C         32.82787        36.10193        -1.77387
C         31.57785        35.61495        -2.23146
C         32.85377        37.49918        -1.29528
C         31.60160        38.26556        -1.18891
C         32.75375        40.41109        -1.62911
C         31.58296        39.63356        -1.06114
C         32.81446        41.84072        -1.13666
C         31.60219        42.50062        -0.70446
C         32.79007        44.67070        -0.65777
C         31.63898        43.92728        -0.47322
C         32.88776        46.18986        -0.59295
C         31.56821        46.86083        -0.27936
C         32.71505        48.87554         0.58251
C         31.52928        48.18679        -0.00485
C         32.69659        50.37394         0.50611
C         31.45187        51.04678         0.39565
C         32.62233        53.15129         0.06467
C         31.43577        52.43843         0.18955
C         35.72170        19.11061         1.70034
C         35.66316        20.48507         1.61638
C         34.42977        21.27966         1.61909
C         35.74475        23.40677         1.62840
C         34.45219        22.68606         1.69160
C         35.78450        24.90582         1.51729
C         34.49090        25.62858         1.53001
C         35.69770        27.70753         0.78087
C         34.45594        26.98928         1.19477
C         35.59208        29.09824         0.20237
C         34.23136        29.67713         0.06243
C         35.37664        31.79030        -0.93386
C         34.14911        31.07559        -0.46927
C         35.35089        33.17487        -1.20432
C         34.11803        34.03015        -0.89981
C         35.29077        36.04362        -1.75273
C         34.04893        35.35699        -1.69221
C         35.35679        37.49892        -1.71681
C         34.14200        38.24332        -1.31120
C         35.26546        40.39101        -1.58511
C         34.10191        39.71766        -1.46163
C         35.26871        41.89127        -1.83717
C         33.99440        42.53055        -1.29410
C         35.33174        44.62265        -0.64785
C         34.01965        43.97530        -1.05393
C         35.26358        45.88025         0.16796
C         34.09497        46.67283         0.23338
C         35.21150        48.93394         1.00738
C         33.99057        48.07819         0.81530
C         35.09831        50.46468         1.16806
C         33.89098        51.12492         0.52807
C         35.11485        53.33761         0.23281
C         33.86038        52.52086         0.26426
C         35.25330        54.67101        -0.41265
C         38.17672        18.98527         1.39587
C         36.96063        18.38862         1.61779
C         38.25393        20.46418         1.33457
C         36.94959        21.20663         1.50964
C         38.01174        23.22700         0.34534
C         36.84486        22.60602         1.00616
C         38.14864        24.71463         0.38327
C         37.01625        25.56758         0.93689
C         37.95606        27.53042        -0.27893
C         36.91648        26.94729         0.43484
C         37.89589        28.91637        -0.76440
C         36.67326        29.68001        -0.62990
C         37.68353        31.59493        -1.87975
C         36.55152        30.98142        -1.13748
C         37.70452        33.09116        -2.03423
C         36.51834        33.88492        -1.61977
C         37.75570        35.99769        -2.17098
C         36.50459        35.28047        -1.83179
C         37.79877        37.49422        -2.00697
C         36.53642        38.19293        -1.69350
C         37.79817        40.36545        -1.84589
C         36.56344        39.65755        -1.30143
C         37.85571        41.89794        -1.70773
C         36.53055        42.51686        -1.25338
C         37.78414        44.31356        -0.14121
C         36.54047        43.73974        -0.63392
C         37.71893        45.50532         0.63831
C         36.46614        46.13678         0.89408
C         37.68638        48.96371         1.10226
C         36.39565        48.37824         1.40968
C         37.68145        50.38081         0.70250
C         36.42387        51.16245         0.83771
C         37.66680        53.21641        -0.08553
C         36.39873        52.59905         0.40899
C         37.72249        54.70235        -0.10907
C         36.45154        55.32368        -0.44490
C         40.63899        16.06939         1.04909
C         39.52791        16.76010         1.36631
C         40.66685        18.98652         0.79393
C         39.46597        18.24683         1.32491
C         40.57642        20.38179         0.29998
C         39.36184        21.12802         0.57003
C         40.23264        23.00486        -0.81261
C         39.23916        22.41906         0.11847
C         40.16742        24.48725        -1.12745
C         39.12773        25.34537        -0.50052
C         40.25908        27.37485        -1.24027
C         39.09542        26.71839        -0.69219
C         40.27059        28.78311        -1.39923
C         39.02367        29.50174        -1.33137
C         40.24974        31.65225        -1.74989
C         38.99881        30.83229        -2.05358
C         40.28078        33.03830        -1.78809
C         39.04084        33.77436        -2.16688
C         40.32849        35.98778        -1.84607
C         39.06925        35.26866        -2.16855
C         40.36050        37.38469        -1.75163
C         39.07024        38.13762        -1.47252
C         40.40141        40.31573        -1.74004
C         39.08852        39.59949        -1.89308
C         40.35950        41.74897        -1.24546
C         39.01331        42.23397        -0.73712
C         40.23889        44.32799         0.00261
C         39.02336        43.68041        -0.32257
C         40.19939        45.63691         0.57832
C         38.96169        46.06558         1.05718
C         40.03575        48.57766         0.22437
C         38.88892        48.31994         1.19860
C         40.14023        50.09743        -0.08077
C         38.88503        50.92447         0.01450
C         40.20821        53.07782         0.31978
C         38.92173        52.42265        -0.11217
C         40.21549        54.56959         0.03931
C         38.97106        55.32071        -0.13736
C         40.28258        57.38933        -0.34001
C         39.10488        56.74237        -0.43621
C         43.14291        16.05403         0.42400
C         41.81367        16.70977         0.40201
C         43.04383        18.93877        -0.03838
C         41.79048        18.18940         0.21174
C         42.96230        20.26823        -0.40682
C         41.66451        20.93933        -0.35463
C         42.74759        22.93416        -1.58559
C         41.50574        22.23533        -1.05505
C         42.69205        24.41853        -1.87779
C         41.41250        25.17482        -1.61946
C         42.67771        27.32486        -1.43799
C         41.45577        26.64956        -1.43692
C         42.71058        28.73934        -1.46092
C         41.49746        29.45128        -1.58941
C         42.75032        31.59969        -1.39126
C         41.54620        30.90989        -1.95272
C         42.70267        33.06409        -1.05473
C         41.49407        33.78811        -1.61538
C         42.77474        35.92086        -1.62735
C         41.53006        35.20856        -1.71098
C         42.81465        37.32959        -1.58109
C         41.59939        38.08633        -1.62673
C         42.80175        40.22002        -1.17676
C         41.63244        39.53204        -1.52578
C         42.75988        41.57763        -0.69905
C         41.57185        42.30381        -0.62161
C         42.66792        44.33591         0.29947
C         41.51135        43.65087        -0.09255
C         42.68548        45.75935         0.51405
C         41.40515        46.48227         0.60492
C         42.62279        48.59751         0.10795
C         41.35041        47.86756         0.53203
C         42.60081        50.13089         0.22312
C         41.42820        50.82571         0.01062
C         42.68372        53.03082         0.22091
C         41.43258        52.33476        -0.25934
C         42.68099        54.45810         0.23695
C         41.43599        55.20328         0.06190
C         42.80757        57.28371        -0.21923
C         41.49376        56.70655         0.22273
C         44.28625        16.75251         0.28872
C         45.58185        18.96786        -0.32858
C         44.32169        18.22773         0.12930
C         45.41857        20.30117        -0.93332
C         44.15799        20.98864        -0.86947
C         45.25271        23.00652        -1.95218
C         44.05762        22.29774        -1.35478
C         45.26675        24.47295        -1.62749
C         44.00578        25.23334        -1.99657
C         45.18546        27.30346        -1.14649
C         43.90799        26.50947        -1.15130
C         45.15674        28.74826        -1.04460
C         43.96126        29.44989        -1.29560
C         45.17674        31.59995        -1.03253
C         43.93522        30.89299        -1.24378
C         45.21350        33.02697        -1.23199
C         44.03127        33.72480        -1.35882
C         45.36158        35.89116        -1.60758
C         44.02673        35.14740        -1.71317
C         45.28298        37.35229        -1.43741
C         44.09170        38.02510        -1.45332
C         45.32432        40.08307        -0.69746
C         44.12674        39.54512        -1.46326
C         45.21124        41.34566         0.08603
C         43.92172        42.10613         0.07656
C         45.17955        44.32501         0.27580
C         43.91710        43.55193         0.62370
C         45.17543        45.80911         0.45416
C         43.89897        46.46354         0.55501
C         45.09509        48.67073         0.29242
C         43.85225        47.95991         0.79742
C         45.09714        50.13671         0.58652
C         43.83387        50.86335         0.37961
C         45.13757        52.98705         0.54576
C         43.86694        52.27905         0.42766
C         45.08516        54.45071         0.92911
C         43.88986        55.17310         0.35164
C         43.94242        56.55780        -0.02193
C         47.88674        18.79883        -1.21001
C         46.84360        18.23671        -0.58679
C         47.85608        20.18521        -1.79928
C         46.58808        20.95460        -1.43989
C         47.77677        23.12140        -1.84933
C         46.55095        22.32034        -1.65402
C         47.73695        24.54334        -1.43810
C         46.43162        25.17029        -1.34652
C         47.55271        27.28756        -0.53225
C         46.36713        26.60733        -1.08107
C         47.57408        28.75544        -0.43758
C         46.35795        29.46332        -0.73228
C         47.55926        31.60951        -0.40545
C         46.34935        30.88634        -0.74815
C         47.68077        32.94709        -0.66841
C         46.58306        33.67350        -1.43613
C         47.74419        35.86740        -0.89503
C         46.55345        35.16215        -1.17076
C         47.78079        37.26087        -1.02162
C         46.59788        38.08815        -1.51281
C         47.77560        40.19585        -0.63976
C         46.51290        39.44379        -0.82990
C         47.76535        41.52581         0.03147
C         46.46631        42.06333         0.62285
C         47.72495        44.31037         0.66293
C         46.46034        43.56908         0.32070
C         47.68386        45.81715         0.67071
C         46.38560        46.49810         0.44504
C         47.66832        48.71987         0.32399
C         46.41852        47.95460         0.22499
C         47.66872        50.13048         0.27014
C         46.40181        50.87615         0.51612
C         47.59759        53.09879         0.15845
C         46.33883        52.34203         0.38243
C         47.55478        54.54135         0.49407
C         46.40296        55.16530         0.77711
C         50.42170        20.34201        -1.87392
C         49.13597        20.98716        -1.41784
C         50.38049        23.26177        -1.83817
C         49.09090        22.42849        -1.92257
C         50.20340        24.57006        -1.09550
C         48.92144        25.18787        -1.04308
C         50.08045        27.31687        -0.19796
C         48.85130        26.53668        -0.43162
C         49.98552        28.71125         0.15577
C         48.72463        29.40820         0.00330
C         49.82273        31.59755         0.74102
C         48.53044        30.84608         0.46753
C         49.90607        33.03444         0.37557
C         48.88786        33.66942        -0.28056
C         50.20827        35.82709        -0.18414
C         49.05423        35.07448        -0.82346
C         50.27075        37.25400        -0.45700
C         49.07980        37.95405        -0.96895
C         50.29042        40.14709        -0.36072
C         49.06645        39.47053        -0.78822
C         50.29586        41.55091        -0.02989
C         49.05335        42.14322         0.57939
C         50.18222        44.38920         0.32873
C         49.02287        43.65185         0.43924
C         50.15627        45.84738         0.35214
C         48.96105        46.53066         0.47078
C         50.12362        48.62293        -0.24485
C         48.98670        48.03661         0.60628
C         50.12961        50.14291        -0.17721
C         48.86739        50.84556         0.13073
C         50.17654        52.96808         0.46893
C         48.89784        52.32854         0.07268
C         51.56971        21.04770        -1.76588
C         52.63497        23.07900        -0.77271
C         51.55933        22.44594        -1.36324
C         52.57748        24.49496        -0.42134
C         51.34746        25.22443        -0.58621
C         52.49144        27.27905         0.26276
C         51.29803        26.61823        -0.18491
C         52.42438        28.70605         0.58841
C         51.16508        29.39517         0.54412
C         52.40368        31.62625         0.85538
C         51.12815        30.84776         0.87928
C         52.42395        32.99318         0.81458
C         51.10471        33.76234         0.93998
C         52.46010        35.90016         0.99346
C         51.22631        35.18798         0.46431
C         52.54631        37.35631         0.53857
C         51.41008        37.98239        -0.17906
C         52.74868        40.11641        -0.45869
C         51.46037        39.41045        -0.34287
C         52.73650        41.61086        -0.38450
C         51.46477        42.27629        -0.01378
C         52.65866        44.40429         0.37065
C         51.46820        43.70526         0.23817
C         52.67527        45.85124         0.37392
C         51.43342        46.57174         0.28813
C         52.67335        48.68848         0.21044
C         51.44531        47.96349         0.14269
C         52.69295        50.12070         0.16736
C         51.42687        50.89079         0.00499
C         51.33377        52.28274         0.50629
C         54.89966        22.90707         0.14699
C         53.83830        22.33179        -0.45114
C         54.87526        24.32114         0.55761
C         53.68215        25.12729         0.17963
C         54.83460        27.17945         1.15480
C         53.66100        26.52272         0.45514
C         54.87915        28.66470         0.86096
C         53.60670        29.40327         0.87122
C         54.92593        31.58867         1.09893
C         53.61807        30.85254         1.30169
C         54.94333        32.95252         0.90092
C         53.70037        33.72144         0.81199
C         55.02306        35.81399         0.66719
C         53.74924        35.10931         0.73443
C         55.10308        37.22417         0.59768
C         53.87325        38.02670         0.47490
C         55.22071        40.12158         0.23242
C         54.00643        39.37598        -0.15608
C         55.23057        41.51421         0.29017
C         54.01080        42.30139        -0.01148
C         55.21093        44.36109         0.57840
C         53.90954        43.62466         0.71345
C         55.21407        45.80911         0.15578
C         53.89758        46.54685         0.35274
C         55.15113        48.70869         0.37914
C         53.91579        47.97330         0.32803
C         55.12169        50.09247         0.31473
C         53.90389        50.79514         0.22101
C         57.48174        24.35492         0.69653
C         56.16873        25.01336         0.91971
C         57.34686        27.14892         1.17360
C         56.17923        26.49950         0.96470
C         57.43508        28.64015         1.38610
C         56.16535        29.39618         1.04636
C         57.56056        31.53738         1.28452
C         56.15816        30.83064         1.55689
C         57.43091        32.94484         0.74410
C         56.22560        33.65400         0.77661
C         57.50384        35.77232         0.54086
C         56.24928        35.07920         0.63316
C         57.55859        37.20146         0.56246
C         56.33952        37.92512         0.55501
C         57.61181        40.06055         0.72165
C         56.38422        39.36688         0.52347
C         57.59875        41.48557         0.86847
C         56.41042        42.20456         0.69990
C         57.66260        44.38423         0.85666
C         56.38842        43.67167         0.71788
C         57.65003        45.79485         0.90139
C         56.33649        46.55148         0.88412
C         57.62389        48.66462         1.11835
C         56.49298        47.98903         0.36439
C         58.63016        25.01694         0.89371
C         59.87583        27.20381         1.09546
C         58.63854        26.41009         1.46719
C         59.85786        28.49940         0.75727
C         58.55060        29.20834         0.47443
C         59.63729        31.39420        -0.07351
C         58.59497        30.72428         0.52901
C         59.74103        32.80439        -0.02172
C         58.65545        33.59948         0.38325
C         59.94273        35.74905         0.29498
C         58.71367        35.03959         0.38710
C         59.99701        37.12258         0.40051
C         58.81215        37.90474         0.53909
C         60.06484        40.10220         0.61023
C         58.84107        39.32721         0.66903
C         60.08241        41.44224         0.81651
C         58.86374        42.17737         1.32265
C         60.03941        44.41591         1.33941
C         58.86777        43.68171         1.09419
C         60.02628        45.80967         1.38761
C         58.82157        46.51392         1.20525
C         58.73374        47.95965         1.41940
O         24.81592        28.67734         0.01222
O         40.51801        41.44951        -2.65537
O         25.01249        27.93183         3.50819
O         35.83316        53.36613         1.52641
O         29.87381        37.39436         0.34921
O         31.62922        30.91230         1.82127
O         44.83527        35.42779        -2.91614
O         34.85284        44.73135        -2.03959
O         29.06694        34.25751        -2.46777
O         55.68666        29.12878        -0.29707
O         49.27975        38.85830        -2.11723
O         36.07244        24.21940         2.78549
O         31.32056        34.61070         0.23291
O         45.59058        48.31931        -1.00017
O         36.85724        22.74477        -0.45585
O         33.63782        37.71935        -0.03524
O         33.00831        48.27112         1.89741
O         48.40165        22.70674        -3.17679
O         41.79739        24.75891        -2.97859
O         36.42737        47.06580         1.91405
O         50.83207        50.72698        -1.33616
O         24.01844        34.15787        -2.03198
O         37.74975        36.90468        -3.33234
O         38.32146        39.87897        -3.10699
O         47.64958        45.02611         1.94434
O         48.23760        52.85481        -1.14804
O         38.20921        25.28901         1.73463
O         39.61146        23.49888        -2.04758
O         55.98873        30.74647         2.97561
O         26.62341        34.23741        -2.22633
O         35.97303        28.90788         1.60522
O         28.62554        30.27054        -1.45390
O         29.65996        48.89564        -1.48311
O         30.33845        45.43824         1.10794
O         37.89244        21.09155         2.61744
O         41.87787        22.14010        -2.46279
O         47.75158        41.46996        -1.41427
O         37.31839        32.21801        -3.15990
O         25.78395        40.57688         1.79077
O         50.32584        31.21862         2.06155
O         47.94724        26.61903         0.73263
O         39.21162        34.49092        -3.42517
O         38.25736        52.75790        -1.37340
O         41.43267        17.30165        -0.90763
O         53.57543        39.53188        -1.53825
O         53.02533        38.18177         1.68022
O         39.29953        50.36923        -1.27883
O         45.80254        50.46267         1.83939
O         45.19994        18.91042         1.09573
O         45.85201        43.90410        -0.95793
O         55.30523        24.46202         1.98042
O         44.22517        41.15488         1.16753
O         32.32722        26.70384         3.27467
O         27.76574        27.84832         3.39404
O         32.44073        40.47156        -3.00902
O         38.93993        47.14880         1.94223
O         37.39041        51.12930         1.96023
O         40.48493        18.83871         2.23464
O         53.54756        42.30023        -1.38857
O         33.78371        29.94569        -1.31889
O         49.16115        41.84460         1.99604
H         48.31165        42.10208         2.42903
O         31.56752        34.59201        -3.12258
H         30.62987        34.31986        -3.29323
O         28.34632        24.68688         4.36130
H         28.34397        25.57674         4.77418
O         44.81211        54.43059         2.38206
H         45.40983        53.76695         2.78825
O         38.80741        41.46412         0.48363
H         37.87521        41.57037         0.77364
O         26.07603        33.54006         0.87650
H         25.65472        33.06844         1.63828
O         28.87846        46.54495        -2.09773
H         29.42749        47.26883        -2.48762
O         50.74137        23.65627        -3.19851
H         49.90949        23.62519        -3.73020
O         47.83178        30.72750         1.74515
H         48.53295        30.66209         2.43681
O         43.96071        43.46021         2.07909
H         43.18784        42.93287         2.37414
O         49.16487        21.12187         0.02640
H         49.28291        20.23183         0.41946
O         25.00316        30.93755        -1.46812
H         24.93569        29.95381        -1.41319
O         47.84535        20.02070        -3.23416
H         47.82651        20.92531        -3.63160
O         58.18592        28.88270        -0.89460
H         58.89983        29.19746        -1.48695
O         34.32251        34.63127         0.40010
H         33.92421        34.05894         1.10007
O         43.76127        48.17100         2.22351
H         44.15990        49.03880         2.45098
O         55.89804        46.63926         2.26654
H         56.63052        47.02902         2.78977
O         35.31526        42.09980        -3.26495
H         35.30110        43.07029        -3.41780
O         24.78719        31.58544         2.15019
H         24.12341        31.35368         2.83400
O         49.43561        34.89670        -2.22247
H         48.68429        34.43450        -2.67319
O         38.97065        38.09954        -0.02007
H         38.24763        38.71572         0.26757
O         52.34812        35.91948         2.44868
H         52.75320        36.77228         2.74720
O         50.81070        33.81246         2.36396
H         51.46355        34.42119         2.78713
O         58.90872        42.03871         2.79010
H         58.85578        41.08089         2.99498
O         58.69530        26.26913         2.91679
H         58.47064        27.16222         3.28062
O         42.53038        33.14179         0.41857
H         43.29562        32.68398         0.82917
O         39.09874        30.46690        -3.47030
H         38.55770        31.13831        -3.95901
O         26.70176        43.96961         2.06961
H         27.52079        43.56369         2.42383
O         32.77757        32.46143        -2.19123
H         32.73328        33.14066        -2.90223
O         30.97879        24.64736         4.11132
H         31.36518        25.46870         4.49248
O         57.79765        28.86066         2.76269
H         57.12888        29.50074         3.15561
O         24.98529        37.96810        -2.34131
H         24.17187        37.48941        -2.61051
O         58.18466        31.72599         2.58392
H         57.44964        31.51870         3.23851
O         46.79448        38.35206        -2.93926
H         47.72071        38.69684        -3.03864
O         44.16419        25.57036        -3.39430
H         43.25447        25.58145        -3.78553
O         44.39989        39.92577        -2.84926
H         45.22104        39.44819        -3.13482
O         33.13245        46.68645        -1.95301
H         33.85127        46.12782        -2.34682
O         36.71610        39.69791         0.17136
H         35.95893        39.20276         0.55780
O         33.51766        32.41168         1.35536
H         32.97708        31.97449         2.06401
O         26.39387        48.10765        -1.78535
H         27.16273        47.58065        -2.11667
O         25.33208        44.13136        -1.30919
H         24.59090        44.65039        -1.68604
O         55.44681        45.75642        -1.27303
H         55.91479        46.58243        -1.54705
O         41.75482        30.92584        -3.41534
H         40.88910        30.64180        -3.81012
O         42.77203        48.32553        -1.30661
H         41.91833        48.50867        -1.75317
O         45.08394        22.89568        -3.41755
H         44.77495        23.77507        -3.74947
O         53.77452        43.26879         2.12942
H         53.85846        44.09081         2.65769
O         41.44211        56.93034         1.68351
H         42.21369        56.46290         2.07176
O         40.27322        52.89162         1.75900
H         39.58812        53.44964         2.18420
O         49.85316        48.25548        -1.61189
H         50.31867        48.90497        -2.18544
O         54.55530        27.07974         2.58102
H         54.66797        26.12723         2.82026
O         39.56533        47.91928        -0.99460
H         39.13738        48.61654        -1.55257
O         34.86448        50.66441         2.58337
H         35.74393        50.76189         3.01514
O         46.50114        41.90212         2.05072
H         45.58103        42.06799         2.37621
O         43.73798        26.01209         0.21929
H         43.91739        26.75002         0.83997
O         53.41906        30.68733         2.74348
H         54.34468        30.64400         3.14733
O         56.92408        47.94197        -1.03234
H         56.95219        48.86145        -1.37079
O         38.11143        42.48653        -2.98473
H         38.40363        41.76229        -3.58979
O         46.92822        33.55280        -2.86148
H         46.24932        34.08365        -3.34849
O         41.38579        52.48121        -1.70454
H         40.56765        52.03479        -2.02220
O         49.33265        48.33282         1.99515
H         48.73346        47.81791         2.57662
H         22.15998        27.10126         2.38260
H         22.06717        29.35386         1.44340
H         22.10043        31.33373         0.82154
H         22.05840        33.40111        -0.38859
H         22.00354        35.40050        -0.61582
H         22.04720        37.66184         0.19314
H         22.15822        39.50056         1.06248
H         22.15546        41.87889         1.41390
H         22.04962        43.87293         1.18780
H         22.01379        46.31232         0.98568
H         25.75381        23.85268         3.08077
H         23.58161        24.96396         2.93662
H         25.07715        49.81006         0.09771
H         23.14541        48.47625         0.80420
H         27.37488        22.99436         2.09604
H         26.80890        50.61424         0.86814
H         29.41821        21.90076         1.44779
H         28.89899        51.88235         1.08369
H         33.09335        19.54424         1.51886
H         31.03177        20.81420         1.70892
H         32.58609        54.23102        -0.13449
H         30.47595        52.96192         0.08467
H         34.80317        18.51818         1.81431
H         34.35007        55.19083        -0.76349
H         36.90432        17.29382         1.70387
H         36.46187        56.36069        -0.81231
H         40.66627        14.97799         1.18996
H         38.65792        16.22329         1.77303
H         40.35265        58.45903        -0.58803
H         38.21591        57.28660        -0.78617
H         43.18109        14.96699         0.59215
H         42.85985        58.33675        -0.53175
H         45.24845        16.22523         0.35943
H         44.92426        57.02148        -0.19773
H         48.80348        18.20837        -1.36213
H         46.93651        17.21941        -0.17919
H         48.48712        55.12031         0.41973
H         46.42213        56.23787         1.02160
H         50.42788        19.30093        -2.22675
H         50.16086        54.01864         0.79391
H         52.52848        20.56076        -2.00217
H         52.24267        52.77237         0.88526
H         55.77552        22.30045         0.41370
H         53.87718        21.26317        -0.70203
H         56.05835        50.66816         0.32687
H         53.93212        51.89153         0.16357
H         57.50173        23.31547         0.33714
H         57.59419        49.74846         1.30661
H         59.59490        24.51822         0.71246
H         60.84145        26.69700         1.25388
H         60.80354        29.03998         0.58916
H         60.45404        30.82878        -0.54909
H         60.66820        33.27405        -0.37904
H         60.88272        35.18979         0.19003
H         60.97803        37.61608         0.37362
H         61.00232        39.59317         0.34252
H         61.03741        41.98318         0.74273
H         60.97972        43.88779         1.55105
H         60.95003        46.36020         1.61636
H         59.60131        48.46192         1.87495
