         232
 CSIRO Nanostructure Databank - Neutral Graphene Oxide Data Set
C        -11.02213         0.59038        -0.57175
C         -9.92388         1.36750         0.05775
C         -8.67309         0.60025         0.38507
C         -7.41779         1.36694         0.71945
C         -6.11950         0.61717         0.79859
C         -4.82215         1.34510         0.71726
C         -3.62937         0.68373         0.68913
C         -2.32452         1.37635         0.86222
C         -1.06474         0.64577         0.52630
C          0.26459         1.33473         0.77945
C          1.40273         0.68932         0.01447
C          2.60315         1.43509        -0.17809
C          3.82430         0.76006        -0.44461
C          5.03808         1.50256        -0.35251
C          6.31178         0.79062        -0.55840
C          7.61260         1.51187        -0.26235
C          8.79692         0.71713         0.11590
C          9.97066         1.43629         0.52701
C         11.11230         0.65024         0.90688
C         -9.85344         2.82888        -0.07133
C         -8.67036         3.56943         0.09404
C         -7.43698         2.87824         0.58149
C         -6.12299         3.58851         0.51327
C         -4.84994         2.80566         0.45090
C         -3.57615         3.58399         0.46078
C         -2.33086         2.88143         0.90718
C         -1.05422         3.64964         0.74915
C          0.20987         2.86707         0.61202
C          1.32508         3.55355        -0.09866
C          2.61661         2.85321        -0.10460
C          3.80603         3.57969        -0.10275
C          5.03677         2.87120        -0.09816
C          6.25837         3.59402         0.39585
C          7.57045         2.92927         0.09808
C          8.78023         3.62942         0.36254
C          9.98258         2.84173         0.52557
C         -8.60788         4.95657        -0.13931
C         -7.34113         5.69900        -0.29347
C         -6.03670         4.97534        -0.05922
C         -4.79408         5.74963         0.20581
C         -3.60262         5.07010         0.46062
C         -2.35251         5.76457         0.48929
C         -1.12893         5.09414         0.39926
C          0.09222         5.81178         0.16916
C          1.30413         5.03973        -0.23070
C          2.61329         5.72509        -0.28558
C          3.79445         5.03596        -0.17347
C          5.07442         5.74725        -0.11347
C          6.24327         5.07692         0.14116
C          7.48296         5.82325         0.58154
C          8.76113         5.03416         0.44777
C         -7.27554         7.17038        -0.29071
C         -6.07892         7.85686        -0.21471
C         -4.81224         7.17760         0.03255
C         -3.63255         7.91854         0.18369
C         -2.38846         7.23397         0.55475
C         -1.05639         8.00098         0.47906
C          0.13676         7.19578         0.18101
C          1.41430         7.91261         0.02328
C          2.57858         7.18560        -0.62345
C          3.88820         7.89917        -0.42553
C          5.06477         7.20354        -0.25366
C          6.34898         7.89966        -0.25867
C          7.51011         7.22967         0.03908
C         -6.03146         9.30372        -0.31713
C         -4.86163        10.00004        -0.25427
C         -3.59027         9.34023        -0.03479
C         -2.38056        10.03591        -0.10666
C         -1.08820         9.41775         0.02605
C          0.09241        10.07039        -0.28058
C          1.40871         9.42354        -0.14649
C          2.66791        10.03459        -0.63964
C          3.86339         9.33997        -0.62247
C          5.15330         9.98518        -0.80037
C          6.32077         9.30859        -0.62119
C        -11.00071        -0.76648        -0.63050
C         -9.81185        -1.54729        -0.30787
C         -8.52680        -0.74873        -0.32864
C         -7.33895        -1.54210         0.09563
C         -6.09952        -0.90579         0.66479
C         -4.84134        -1.44504        -0.00597
C         -3.57630        -0.74119         0.29963
C         -2.29452        -1.48649         0.62147
C         -1.06978        -0.68449         0.25428
C          0.19521        -1.50948         0.14624
C          1.39138        -0.67279        -0.27673
C          2.56450        -1.30463        -0.78529
C          3.81230        -0.64080        -0.73665
C          5.09139        -1.34384        -0.78895
C          6.27416        -0.68430        -0.55941
C          7.56748        -1.40245        -0.39638
C          8.75794        -0.67808         0.10333
C          9.86950        -1.44461         0.58548
C         11.05154        -0.72307         0.95360
C         -9.81855        -2.90258        -0.10718
C         -8.60423        -3.69348         0.06935
C         -7.33638        -2.95446         0.05119
C         -6.11388        -3.63903         0.11548
C         -4.82508        -2.95106        -0.25405
C         -3.62566        -3.58423         0.39961
C         -2.33855        -2.95808         0.22112
C         -1.17364        -3.60967        -0.13962
C         -0.08531        -2.72944        -0.77590
C          1.17378        -3.49488        -1.18839
C          2.50409        -2.73856        -1.15931
C          3.78597        -3.50953        -1.06464
C          5.15752        -2.84464        -1.02383
C          6.11206        -3.48875        -0.00732
C          7.49776        -2.88932        -0.15970
C          8.62818        -3.59527         0.47937
C          9.78684        -2.85971         0.75522
C         -8.61456        -5.05341         0.29737
C         -7.37620        -5.86884         0.28671
C         -6.06569        -5.10342         0.18115
C         -4.85117        -5.70168         0.75304
C         -3.78659        -4.84165         0.98994
C         -2.01927        -5.95798         0.45332
C         -1.17161        -5.08055        -0.38406
C         -0.07507        -5.79533        -1.14920
C          1.20503        -4.99464        -1.38863
C          2.54822        -5.66949        -1.19542
C          3.64398        -4.90380        -0.47962
C          4.95662        -5.65301        -0.37403
C          6.12164        -4.99843        -0.10552
C          7.34260        -5.71566         0.25752
C          8.50306        -5.01001         0.61292
C         -7.26404        -7.26493         0.79818
C         -6.06519        -7.88736         1.01457
C         -4.75373        -7.14162         1.20478
C         -3.53924        -7.91145         0.65091
C         -2.34711        -7.25133         0.15384
C         -1.43814        -8.00713        -0.78409
C         -0.10611        -7.29090        -1.01709
C          0.87769        -8.09869        -1.50817
C          2.79300        -6.93215        -1.60003
C          3.98522        -7.78947        -1.29301
C          4.82859        -7.13945        -0.18664
C          6.13915        -7.85844        -0.02834
C          7.29675        -7.15504         0.25228
C         -5.97515        -9.33110         1.16935
C         -4.79573        -9.99227         0.99471
C         -3.57204        -9.30163         0.62562
C         -2.36376       -10.03762         0.30013
C         -1.26991        -9.44168        -0.29759
C         -0.00040       -10.09913        -0.44580
C          1.09520        -9.45085        -1.01187
C          2.45622        -9.92669        -0.85149
C          3.66130        -9.23481        -0.86593
C          4.85578        -9.92589        -0.42949
C          6.03397        -9.28973        -0.09619
O         -5.96910        -1.43941         2.01677
H         -6.45684        -0.82302         2.61339
O          1.68522         8.75925         1.16565
O          3.22442        -4.67153         0.90939
H          3.25166        -5.55721         1.35026
O          6.20545         3.44044         1.87251
H          6.69860         4.21478         2.25387
O         -2.15291        -1.64974         2.01650
O         -4.11628         3.06364        -0.80989
O         -2.62026        -5.38204         1.58772
O          0.46387        -2.02370         1.47011
H         -0.38797        -1.91734         1.99198
O         -1.26624        -5.33951        -1.85756
O          4.79733        -7.86389        -2.48416
H          4.21442        -8.12034        -3.22944
O          7.12316         1.31890        -1.66544
O          7.86936        -2.36510        -1.46238
O          0.57500         1.08348         2.17101
H         -0.08393         1.58855         2.70180
O         -2.04377        -8.08150        -2.10326
H         -2.06877        -7.16107        -2.45554
O         -6.51829         5.09640        -1.42400
O          3.22948        -3.18313        -2.36168
O         -4.55203        -7.09686         2.65371
H         -3.71465        -6.60073         2.80807
O          0.99891         4.15841        -1.39739
O          1.84651        -7.59454        -2.38343
O          5.72223        -3.09552        -2.32497
H          5.02218        -2.89599        -2.98688
O          4.06294        -7.32122         1.06203
H          4.70664        -7.38340         1.79961
O         -6.65199        -5.77553        -0.99430
O          5.65793        -3.15562         1.32856
H          4.76864        -3.57070         1.45679
O         -0.66900        -2.19861        -1.98474
H         -0.55623        -2.88761        -2.68130
O         -1.71569         7.76234         1.75262
O          7.29848         5.96968         2.07029
H          6.57651         6.62190         2.20750
O         -4.67117        -3.17346        -1.68565
H         -4.25801        -2.35539        -2.05646
O          2.27260         7.25371        -2.05941
H          2.82236         6.58626        -2.52205
O         -9.65336         0.75101         1.42248
O         -8.27687        -0.34493        -1.72571
H         -8.11018        -1.15729        -2.25052
O         -6.84773         3.52731         1.76814
O         -6.87451         0.97018         2.01740
O          1.02759        -4.10572        -2.52185
O         -2.35713         2.12741         2.14689
O         -4.16518        -0.76468        -1.09324
O         -0.11948         3.50536         1.88529
H         11.92976        -1.29392         1.29009
H         12.03636         1.16854         1.20174
H         10.91724         3.36528         0.77709
H          9.70413         5.56845         0.63644
H          8.47087         7.76693         0.01970
H          7.28169         9.83538        -0.71875
H          5.17126        11.05921        -1.03839
H          2.66943        11.11226        -0.86715
H          0.05595        11.09050        -0.69405
H         -2.41129        11.11377        -0.32987
H         -4.86701        11.09356        -0.37461
H         -6.97807         9.83925        -0.48339
H         -8.21690         7.73560        -0.37301
H         -9.54351         5.49638        -0.35338
H        -10.73914         3.34409        -0.47426
H        -11.92368         1.13817        -0.88577
H        -11.89508        -1.30852        -0.97507
H        -10.78008        -3.44041        -0.11618
H         -9.57555        -5.57231         0.44137
H         -8.18256        -7.87549         0.79457
H         -6.90318        -9.89843         1.33723
H         -4.77057       -11.09024         1.05898
H         -2.32574       -11.10762         0.56037
H          0.12931       -11.09391         0.00960
H          2.52684       -10.96715        -0.48556
H          4.81106       -11.02377        -0.34852
H          6.91426        -9.89543         0.16775
H          8.23235        -7.70742         0.43343
H          9.37810        -5.58191         0.96063
H         10.66722        -3.38137         1.16242
