         324
 CSIRO Nanostructure Databank - Neutral Graphene Oxide Data Set
C          1.41917         1.88487         1.35415
C          1.48943         3.18839         1.87329
C          2.52890         1.33713         0.73656
C          2.65589         3.92249         1.68748
C          1.39818         6.95314         1.31387
C          1.17088         7.98926         0.36030
C          2.55151         6.18967         1.26017
C          2.16006         8.25953        -0.54309
C          1.02563        11.23597        -0.79701
C          1.11637        12.44872        -0.13184
C          2.18017        10.46643        -0.94724
C          2.34352        12.88391         0.39471
C          1.19477        15.12558         0.96932
C          1.28479        16.47134         1.13318
C          2.37352        14.22432         1.06339
C          2.52982        17.16252         1.34563
C          2.59608        18.56197         1.31947
C          3.76614         2.03425         0.63670
C          3.81805         3.41892         1.05484
C          4.85175         1.29698         0.05107
C          4.94324         4.31078         0.75245
C          3.60813         6.41089         0.31932
C          3.46051         7.59970        -0.52344
C          4.83234         5.68947         0.28057
C          4.75023         8.46425        -0.78341
C          3.45013        10.84044        -0.46648
C          3.51415        12.08744         0.23109
C          4.69835        10.02075        -0.97732
C          4.84449        12.68487         0.57436
C          3.70188        14.88551         1.33297
C          3.75726        16.38218         1.48548
C          4.96322        14.15336         0.95462
C          5.07932        17.12465         1.19115
C          3.80044        19.25101         1.13057
C          5.01357        18.56991         0.90055
C          6.17683         1.59358         0.35709
C          6.21372         3.71850         0.76479
C          7.38105         1.18422        -0.24115
C          7.36993         4.21689         0.13555
C          6.00333         6.37613        -0.21524
C          6.02530         7.76971        -0.48224
C          7.25647         5.58775        -0.38993
C          7.26226         8.50571        -0.68647
C          5.96460        10.59077        -0.30147
C          5.93630        12.11109        -0.24447
C          7.25787         9.89437        -0.75056
C          6.85816        12.97999        -0.75114
C          6.14063        14.94459         0.48787
C          6.20878        16.35770         0.64700
C          7.15227        14.30286        -0.24781
C          7.34656        17.06056         0.19325
C          6.16354        19.21672         0.41283
C          7.34996        18.50526         0.13351
C          8.56292         1.98465        -0.17052
C          8.54454         3.44157        -0.08249
C          9.79165         1.32759        -0.40533
C          9.79140         4.14253        -0.30240
C          8.55941         6.28326        -0.68151
C          8.60235         7.77742        -0.91433
C          9.80940         5.56610        -0.36418
C          9.66970         8.48612        -0.03686
C          8.53334        10.60922        -0.85953
C          8.68150        11.90630        -1.27453
C          9.80333         9.84218        -0.71079
C          9.85160        12.79155        -1.06454
C          8.48074        14.90800        -0.36168
C          8.54718        16.34398        -0.10365
C          9.67593        14.19084        -0.57775
C          9.76706        17.07331        -0.14375
C          8.53508        19.17618        -0.27136
C          9.76526        18.51480        -0.33347
C         11.03492         1.99814        -0.39319
C         11.03098         3.43951        -0.31446
C         12.25681         1.29915        -0.46937
C         12.26374         4.14193        -0.27198
C         11.02184         6.26455        -0.19943
C         11.03167         7.73352         0.18776
C         12.23672         5.55589        -0.12811
C         12.29649         8.44824        -0.28153
C         11.10031        10.57030        -0.80270
C         11.15015        12.06475        -0.87069
C         12.32970         9.85739        -0.41683
C         12.34386        12.70301        -0.28294
C         10.91667        14.84154        -0.08438
C         10.97668        16.31119        -0.04143
C         12.24805        14.11865         0.11619
C         12.17630        16.87491         0.36901
C         10.96389        19.25169        -0.74028
C         12.21124        18.95775        -0.21690
C         13.50391         1.97469        -0.43613
C         13.51596         3.41408        -0.33402
C         14.73135         1.27736        -0.46590
C         14.75052         4.08213        -0.32043
C         13.50845         6.29861        -0.00582
C         13.50586         7.75484        -0.26678
C         14.79278         5.54809        -0.14388
C         14.75349         8.43776        -0.42972
C         13.53484        10.56286        -0.40070
C         13.51674        12.00617        -0.23857
C         14.76792         9.86174        -0.41899
C         14.79061        12.67297         0.11302
C         13.51098        14.89122         0.18552
C         13.46373        16.26463         0.24188
C         14.79213        14.17032         0.31477
C         14.69530        17.12330         0.33224
C         13.54966        19.25570        -0.62446
C         14.69463        18.52888        -0.23096
C         15.97691         1.94689        -0.37713
C         15.99126         3.38963        -0.33354
C         17.20628         1.24549        -0.35411
C         17.23496         4.09527        -0.19598
C         15.97272         6.23038        -0.79500
C         15.98218         7.72674        -0.59065
C         17.29493         5.52771        -0.50420
C         17.16098         8.43499        -0.80985
C         15.99333        10.58815        -0.54606
C         16.03378        12.02942        -0.34905
C         17.16317         9.86007        -0.78092
C         17.18215        12.79366        -0.49591
C         16.05737        14.91165         0.15050
C         16.02961        16.38630         0.38169
C         17.20900        14.22996        -0.21808
C         17.35202        17.14996         0.24730
C         15.95151        19.11318        -0.55760
C         17.21339        18.52569        -0.38347
C         18.42279         1.91860        -0.09207
C         18.39039         3.34535         0.14579
C         19.66761         1.24635        -0.05234
C         19.59592         3.96195         0.63925
C         18.43993         6.20964        -0.84739
C         18.41019         7.67407        -1.08134
C         19.80387         5.60756        -1.12708
C         19.73379         8.41039        -0.96916
C         18.40744        10.60539        -1.02233
C         18.42459        12.10929        -0.92462
C         19.64316         9.87020        -0.62891
C         19.71585        12.81218        -0.71609
C         18.44063        14.98977        -0.47578
C         18.45076        16.34917        -0.40207
C         19.69110        14.28705        -1.01119
C         19.67427        17.10662        -0.88309
C         18.40345        19.23778        -0.63379
C         19.67402        18.60061        -0.59318
C         20.89136         1.94687         0.16704
C         20.84526         3.38085         0.40984
C         22.10609         1.28131         0.31337
C         22.09559         4.14312         0.38152
C         20.97024         6.29326        -0.44679
C         20.92244         7.67421        -0.47177
C         22.12140         5.57638         0.08944
C         22.04696         8.47317         0.04533
C         20.84669        10.66405        -0.27048
C         20.87713        12.13764        -0.44854
C         22.13173         9.92137        -0.33377
C         22.15463        12.81726        -0.28058
C         20.96320        14.95183        -0.54076
C         20.91209        16.41245        -0.35502
C         22.13006        14.25810        -0.32835
C         22.16752        17.19398        -0.21300
C         20.88351        19.30111        -0.51880
C         22.16707        18.66183        -0.41448
C         23.32282         1.97391         0.86179
C         23.28375         3.46540         0.59714
C         24.60676         1.34174         0.36208
C         24.54331         4.19683         0.76370
C         23.34001         6.28353         0.27014
C         23.33450         7.75339         0.31297
C         24.56979         5.64038         0.53576
C         24.60958         8.50125         0.24763
C         23.40242        10.66836        -0.12698
C         23.35709        12.14806        -0.00262
C         24.60020         9.89525         0.22780
C         24.56932        12.87018         0.28636
C         23.43433        14.96809        -0.32474
C         23.45524        16.46282        -0.35540
C         24.64672        14.26260         0.12771
C         24.68460        17.18351        -0.01574
C         23.39491        19.30404        -0.36238
C         24.65038        18.60650        -0.12070
C         25.81112         2.00985         0.32741
C         25.86643         3.44461         0.70016
C         27.05100         1.38356        -0.02140
C         27.09216         4.22105         0.44272
C         25.81426         6.35029         0.52703
C         25.81942         7.75751         0.34913
C         27.07481         5.63633         0.49234
C         27.08446         8.46714         0.14239
C         25.81007        10.63437         0.59014
C         25.79375        12.15594         0.67910
C         27.09830         9.99299         0.26373
C         27.08618        12.86054         0.65180
C         25.85096        14.99177         0.37731
C         25.86843        16.45369         0.26954
C         27.05302        14.27184         0.64531
C         27.07306        17.18249         0.39591
C         25.87243        19.29468        -0.04487
C         27.09140        18.59622         0.17590
C         28.26152         2.08498        -0.01700
C         28.29143         3.51543         0.18798
C         29.50893         1.41002        -0.25271
C         29.53282         4.22145         0.14427
C         28.32070         6.35437         0.39903
C         28.35163         7.76993         0.34053
C         29.55692         5.64135         0.29739
C         29.56364         8.51099         0.38870
C         28.34933        10.69895         0.54497
C         28.31912        12.11265         0.72293
C         29.56271         9.96080         0.49383
C         29.57171        12.80178         0.82024
C         28.27723        15.00406         1.03667
C         28.30686        16.51318         0.84010
C         29.57496        14.25030         1.10828
C         29.60124        17.19299         0.63413
C         28.33617        19.27533         0.18792
C         29.57327        18.59064         0.33375
C         30.69958         2.08793        -0.25472
C         30.74803         3.50711        -0.05372
C         31.96758         4.22613        -0.06017
C         30.79449         6.35200         0.26706
C         30.80114         7.79642         0.38702
C         31.98955         5.60142         0.10068
C         32.00497         8.54109         0.47847
C         30.79945        10.66975         0.57212
C         30.78839        12.11231         0.67881
C         32.00534         9.92185         0.56312
C         32.00218        12.87859         0.48314
C         30.88415        15.02976         0.95625
C         30.83164        16.50407         0.70368
C         32.03648        14.23691         0.50163
C         32.02534        17.22748         0.52777
C         30.80190        19.28636         0.17804
C         32.00593        18.60766         0.28334
O         14.36239         5.98362         1.17980
O         15.35899        16.85646         1.60981
O         27.07369         9.35095        -1.04605
O         14.81549        13.23185         1.46542
O          7.60513        12.56671        -1.85738
O         25.69666        11.28957         1.88765
O          2.70172         5.21169         2.25361
O         19.18222         8.07962        -2.27134
O          5.23708        13.07422         1.92198
O          7.80392         5.64460        -1.76861
O          4.66225        16.78942         2.55100
O         28.09928        15.89168         2.17384
O         12.16411        18.14472         0.93645
O          4.09608         7.67929        -1.83012
O          2.97128        14.22956         2.40816
O         30.38209        14.61606         2.26633
O         19.95726         4.72567        -1.95301
O         22.92140        10.21873        -1.50801
O         21.38808        16.80979         0.98027
O         19.71713        17.04789        -2.30189
O         11.32298        14.28698         1.25246
O         22.44920         8.21978         1.42216
O         18.39920        11.41092        -2.23267
O          2.01257         9.21363        -1.56759
O         19.96612        10.14658         0.78270
O         25.26391         3.76161         2.00382
O          6.34141         2.49814         1.43625
O         10.83813        12.66553        -2.17680
O         10.54331         9.87743        -1.97235
O         23.61951        15.70096        -1.60574
O          4.76425        10.25353        -2.38490
H          4.20049         9.57712        -2.82300
O         15.74368         6.01634        -2.22472
H         16.49499         6.40838        -2.71987
O         19.67890        14.41951        -2.45890
H         19.69795        15.41023        -2.65299
O          9.03181         8.71357         1.23377
H          9.67849         8.49670         1.94592
O         19.47006         5.11767         1.34890
H         20.33842         5.38698         1.71439
O         17.85078        17.39452         1.59426
H         17.06039        17.46907         2.17908
O          5.78409        10.18246         1.08782
H          6.46129        10.62762         1.64006
O          8.97354         7.93945        -2.29140
H          8.43372         7.30423        -2.81203
O         23.30689         1.78809         2.32521
H         24.03468         2.36061         2.67172
O         11.22412         7.69648         1.64415
H         12.06427         7.22285         1.83125
H          0.49732         1.29733         1.46078
H          0.64158         3.63165         2.41048
H          2.48872         0.30199         0.36884
H          0.64826         6.74347         2.08611
H          0.21572         8.52833         0.33631
H          0.07235        10.87835        -1.20500
H          0.20959        13.05425        -0.02182
H          0.19863        14.69521         0.80186
H          0.37139        17.08183         1.07043
H          1.65554        19.13249         1.32721
H          4.61673         0.46077        -0.62357
H          3.77920        20.34504         1.02263
H          7.42696         0.23277        -0.79232
H          6.14411        20.30733         0.26785
H          9.78484         0.23312        -0.52152
H          8.49835        20.26505        -0.42366
H         12.24305         0.20110        -0.53938
H         10.84650        20.04783        -1.49114
H         14.72001         0.17836        -0.51741
H         13.71457        20.13405        -1.26911
H         17.21313         0.15675        -0.50901
H         15.92525        20.12808        -0.98739
H         19.69294         0.15435        -0.18016
H         18.33994        20.30961        -0.88735
H         22.14479         0.18960         0.17524
H         20.84976        20.39951        -0.42047
H         24.58797         0.26719         0.12180
H         23.44246        20.39638        -0.49237
H         27.05344         0.30622        -0.24476
H         25.89785        20.38616        -0.17627
H         29.49253         0.32272        -0.41706
H         28.35142        20.36169         0.01626
H         31.64260         1.54726        -0.42196
H         32.91059         3.67907        -0.20399
H         32.95923         6.11673         0.07515
H         32.97064         8.01806         0.49579
H         32.97005        10.43944         0.64994
H         32.91173        12.34169         0.17999
H         32.95051        14.75376         0.17634
H         32.99401        16.71562         0.60332
H         30.78569        20.36444        -0.03517
H         32.95493        19.14891         0.16724
