         429
 CSIRO Nanostructure Databank - Neutral Graphene Oxide Data Set
C          1.78490         4.07762         3.73162
C          0.69597         4.85155         4.01812
C          1.81983         6.95895         3.40673
C          0.71417         6.27297         3.88320
C          1.78773         8.36235         3.02480
C          0.61803         9.12655         3.20755
C          1.65050        11.09639         2.21012
C          0.54177        10.44738         2.78979
C          1.38569        12.41340         1.47396
C          0.38749        13.38302         2.06452
C          1.36581        15.25159         0.74991
C          0.35818        14.66696         1.63741
C          1.26821        16.60952         0.24483
C          0.11556        17.41128         0.46171
C          1.07537        19.35370        -0.68688
C          0.03633        18.73255         0.05036
C          1.07440        20.72337        -1.05362
C         -0.07865        21.56683        -0.77791
C          0.97785        23.49456        -1.94265
C         -0.12884        22.86972        -1.12896
C          1.04949        25.00335        -1.82947
C         -0.11826        25.75691        -1.87581
C          1.07608        27.88384        -1.68059
C         -0.10214        27.17405        -1.75444
C          1.11125        29.33405        -1.52962
C         -0.01579        30.13997        -1.79695
C          1.21561        32.17423        -1.21954
C          0.04107        31.51906        -1.63898
C          1.24853        33.63181        -1.06880
C          0.09533        34.44004        -1.30876
C          1.38174        36.47755        -0.94349
C          0.16681        35.81378        -1.27628
C          1.48284        37.89487        -0.93542
C          4.17682         3.94701         2.87315
C          3.08374         4.69529         3.47981
C          4.18546         6.83413         2.48368
C          3.09784         6.24468         3.28535
C          4.12229         8.20803         2.17277
C          2.94890         8.99421         2.46617
C          4.04532        11.02539         1.47663
C          2.86372        10.38025         2.09817
C          3.87538        12.39868         0.89917
C          2.63472        13.17856         1.11279
C          3.67339        15.09519        -0.15253
C          2.50381        14.51076         0.47062
C          3.59404        16.47456        -0.61519
C          2.35696        17.16092        -0.48392
C          3.50920        19.20220        -1.55696
C          2.21024        18.49877        -1.07064
C          3.51276        20.66495        -1.58114
C          2.27641        21.37141        -1.50413
C          3.49836        23.49170        -1.66720
C          2.28835        22.79209        -1.67830
C          3.51243        24.93900        -1.63249
C          2.30628        25.65901        -1.73140
C          3.54882        27.75469        -1.19024
C          2.37955        27.15607        -1.92049
C          3.44173        29.12525        -0.69302
C          2.29546        29.96858        -1.08433
C          3.62825        32.01122        -0.59046
C          2.37362        31.37916        -0.94216
C          3.69236        33.48153        -0.63983
C          2.44588        34.26992        -0.71912
C          3.72095        36.35235        -0.18038
C          2.52463        35.69328        -0.60997
C          3.79125        37.74123        -0.17969
C          2.66922        38.50867        -0.59150
C          6.43486         3.81458         1.97118
C          5.29067         4.59352         2.33537
C          6.36119         6.58364         1.29801
C          5.29536         6.02325         2.09837
C          6.31416         7.92836         0.93766
C          5.43760         8.84258         1.75772
C          6.06357        10.60364        -0.09016
C          5.29506        10.26277         1.19369
C          6.02207        12.08602        -0.49928
C          4.84613        12.91644        -0.09891
C          5.96653        14.93062        -1.17192
C          4.84219        14.36878        -0.32884
C          6.09770        16.41126        -0.83234
C          4.77844        17.12590        -1.05801
C          5.99284        19.20304        -1.64608
C          4.78378        18.48544        -1.40548
C          5.96741        20.59163        -1.81297
C          4.74391        21.34154        -1.70742
C          5.95440        23.50238        -1.65553
C          4.74961        22.78252        -1.68400
C          5.97000        24.90299        -1.38332
C          4.75122        25.62233        -1.39211
C          5.97555        27.67109        -0.68036
C          4.73498        27.03193        -1.06814
C          5.98629        29.06441        -0.36304
C          4.72764        29.81375        -0.25700
C          6.02111        31.91235         0.11489
C          4.78413        31.28944        -0.27397
C          6.09452        33.33757         0.26556
C          4.94675        34.15788        -0.18262
C          6.17705        36.21675         0.43545
C          4.83087        35.53279         0.43813
C          6.26582        37.61072         0.34352
C          5.02335        38.47227         0.30627
C          8.76685         3.62391         1.23747
C          7.56904         4.37471         1.37743
C          8.61173         6.31562         0.30555
C          7.51602         5.76686         0.94419
C          8.58892         7.70300        -0.20083
C          7.36136         8.51839         0.10316
C          8.56115        10.60418        -0.58071
C          7.44199         9.99069        -0.07406
C          8.48477        12.00333        -1.07342
C          7.27125        12.80656        -0.85734
C          8.52534        14.89902        -1.25707
C          7.28397        14.17375        -1.05796
C          8.50575        16.34221        -1.44867
C          7.30557        17.04302        -1.46238
C          8.52797        19.19533        -1.82629
C          7.24124        18.43100        -2.03430
C          8.52056        20.58944        -1.91261
C          7.23021        21.30840        -2.09076
C          8.48087        23.52707        -1.67030
C          7.22139        22.82638        -1.95851
C          8.48215        24.83817        -1.21980
C          7.21772        25.57232        -1.10928
C          8.50324        27.65913        -0.58167
C          7.19124        26.92801        -0.75494
C          8.34811        28.91065         0.25376
C          7.16325        29.74348         0.00257
C          8.42006        31.74028         0.80402
C          7.18784        31.12085         0.35037
C          8.39619        33.19204         1.24240
C          7.24732        33.98281         0.67896
C          8.61891        36.05570         0.64765
C          7.34401        35.42760         0.60919
C          8.69821        37.45000         0.44126
C          7.53333        38.21432         0.31455
C         11.17272         3.51405         0.63220
C          9.93178         4.17237         0.66494
C         11.09860         6.21963        -0.43439
C          9.79500         5.49091         0.01836
C         11.06366         7.66856        -0.63122
C          9.89454         8.48201        -0.18519
C         11.00045        10.59036        -1.03891
C          9.83469         9.90923        -0.71397
C         11.05776        12.03739        -1.17054
C          9.77903        12.75320        -1.33367
C         11.00594        14.91789        -1.33448
C          9.75684        14.22282        -1.29058
C         10.99034        16.34714        -1.48565
C          9.76377        17.04381        -1.61033
C         10.98095        19.20109        -1.76449
C          9.75755        18.47968        -1.73844
C         10.96942        20.62904        -1.86271
C          9.74031        21.31946        -1.92137
C         11.04729        23.52241        -1.61828
C          9.73108        22.79718        -1.95070
C         10.95008        24.84971        -0.98506
C          9.74052        25.48091        -0.84429
C         10.88833        27.54750         0.17383
C          9.61061        26.74713        -0.02082
C         10.84355        28.81026         0.67730
C          9.56858        29.54918         0.82127
C         10.86126        31.65741         1.32099
C          9.59081        31.01839         0.98388
C         10.90766        33.11550         1.35772
C          9.73711        33.87618         1.08906
C         11.09715        35.91133         0.95238
C          9.82475        35.26287         0.88715
C         11.21688        37.32189         0.67859
C         10.02354        38.14280         0.25801
C         13.65299         3.52031         0.43074
C         12.38529         4.19470         0.30529
C         13.55137         6.37561         0.02429
C         12.34895         5.55508        -0.08710
C         13.57845         7.74645        -0.53309
C         12.31024         8.36256        -0.93245
C         13.55364        10.58834        -1.03928
C         12.28482         9.85136        -1.19653
C         13.55256        12.03529        -1.47319
C         12.24519        12.75429        -1.20744
C         13.48174        14.91677        -1.25156
C         12.24615        14.20440        -1.27445
C         13.47501        16.35740        -1.36302
C         12.23276        17.06143        -1.51575
C         13.45641        19.16788        -1.73174
C         12.22436        18.47745        -1.65102
C         13.48680        20.62515        -1.89228
C         12.21359        21.36397        -1.71122
C         13.47222        23.26818        -0.72763
C         12.25391        22.70579        -1.42975
C         13.49623        24.75945        -0.55894
C         12.24041        25.53183        -0.68053
C         13.39869        27.45867         0.52754
C         12.19961        26.92084        -0.08730
C         13.34311        28.71618         1.26914
C         12.02957        29.45234         1.28372
C         13.26294        31.50705         2.02178
C         12.02356        30.91009         1.47265
C         13.27831        33.02606         2.10728
C         12.13512        33.77996         1.56506
C         13.54208        35.82647         1.44080
C         12.24847        35.17520         1.34421
C         13.63602        37.21020         1.05755
C         12.44337        37.93291         0.72336
C         16.14086         3.51930         0.24720
C         14.87023         4.17454         0.28369
C         16.10908         6.33237        -0.19348
C         14.88279         5.64705         0.22310
C         16.03719         7.74206        -0.59241
C         14.74428         8.47204        -0.58721
C         15.97688        10.67813        -0.60359
C         14.72698         9.90555        -0.83880
C         15.99283        12.13629        -0.85499
C         14.78760        12.80784        -1.08104
C         15.97857        14.93354        -0.98480
C         14.74626        14.22669        -1.11799
C         15.98662        16.44081        -0.89804
C         14.68997        17.07880        -1.37192
C         15.93457        19.18297        -1.77597
C         14.67411        18.47680        -1.61693
C         16.07124        20.56856        -1.67849
C         14.81450        21.35079        -1.73711
C         15.98884        23.34780        -0.88002
C         14.79784        22.71624        -1.19337
C         15.94660        24.68613        -0.27696
C         14.67129        25.35414        -0.14307
C         15.87568        27.38417         0.85891
C         14.60156        26.59902         0.71936
C         15.83937        28.74534         1.33560
C         14.61017        29.45266         1.50873
C         15.80252        31.47118         2.23637
C         14.57641        30.79162         1.94763
C         15.83176        32.92841         2.58801
C         14.58369        33.73888         2.32836
C         15.98948        35.74557         1.72185
C         14.69831        35.13751         1.84589
C         16.06829        37.11432         1.26952
C         14.88029        37.83251         0.99570
C         18.61031         3.56458         0.16373
C         17.33261         4.22760         0.09877
C         18.57509         6.38432        -0.27032
C         17.32060         5.65883        -0.16139
C         18.59228         7.79134        -0.41231
C         17.33048         8.49614        -0.68974
C         18.55067        10.71123        -0.60874
C         17.28472         9.96824        -0.46373
C         18.49486        12.12472        -0.70908
C         17.23605        12.83727        -0.79256
C         18.47524        15.08261        -0.79445
C         17.20199        14.26027        -0.88568
C         18.47658        16.23410        -1.84991
C         17.18768        17.03133        -1.61885
C         18.86620        19.43009        -2.20206
C         17.02146        18.28212        -2.10662
C         18.61969        20.65266        -1.62992
C         17.31665        21.33179        -1.54211
C         18.48689        23.59060        -1.10892
C         17.25852        22.67621        -1.13854
C         18.40024        24.72577        -0.08989
C         17.12184        25.35146         0.12178
C         18.30353        27.33533         1.09938
C         17.08074        26.69535         0.69619
C         18.29490        28.68350         1.56201
C         17.05389        29.41943         1.64823
C         18.29729        31.48252         2.27198
C         17.02675        30.77951         2.08228
C         18.36875        32.83721         2.35588
C         17.17096        33.68470         2.67959
C         18.44488        35.66987         1.82109
C         17.18894        35.03714         1.98587
C         18.50680        37.04754         1.40321
C         17.32133        37.74082         1.13257
C         19.78466         4.25841         0.07241
C         21.00608         6.42844        -0.09932
C         19.80287         5.68818        -0.10493
C         21.00519         7.81132        -0.23259
C         19.79806         8.53447        -0.39498
C         20.97595        10.73827        -0.68160
C         19.76897         9.99195        -0.56835
C         20.95735        12.10826        -0.77894
C         19.73414        12.85220        -0.76899
C         20.94438        15.01662        -0.80428
C         19.73734        14.25871        -0.84255
C         20.96291        16.34177        -1.12015
C         19.82425        17.04798        -1.74882
C         21.16435        19.26514        -1.26186
C         20.03977        18.57601        -1.93542
C         21.05016        20.55400        -0.89578
C         19.87031        21.37352        -1.26965
C         20.97380        23.48582        -0.38389
C         19.82529        22.84867        -1.05304
C         20.84081        24.64179         0.28933
C         19.55305        25.29466         0.44121
C         20.67893        27.17886         1.62900
C         19.51921        26.59517         1.08807
C         20.67086        28.50144         2.06188
C         19.50961        29.27061         1.98400
C         20.69373        31.43542         1.64456
C         19.59886        30.70917         2.40530
C         20.76044        32.76728         1.71201
C         19.71492        33.52644         2.49961
C         20.87550        35.68253         2.03341
C         19.68024        34.99070         2.09831
C         20.92651        37.04394         1.63723
C         19.77166        37.70712         1.30564
O         17.94190        18.80134        -3.02775
O          4.69944        34.04088        -1.60864
O         14.18566        21.15765        -3.07268
O         15.01386        33.42293         3.70191
O          8.99688        12.16801        -2.43998
O          7.20545        22.15356        -3.28249
O         12.31482         8.92481        -2.33986
O          7.60986         7.90228        -1.24361
O         14.20229         6.30324         1.35171
O         10.20946         5.48891        -1.36994
O          3.71587        13.27735         2.08413
O         20.31507        17.62792        -3.00822
O         16.53073        10.34763         0.74305
O         20.21408        22.33069        -2.37805
O          5.30420        11.18675         2.30154
O         12.46866        28.70174         2.49259
O         12.94838        32.20481         3.26935
O          4.89074        12.26250        -1.43772
O         10.53540        23.43742        -2.98914
O          8.60939        28.81732         1.69985
O          3.54108         5.62325         4.52426
O         16.69261         8.01951        -1.91464
O          2.56897        18.58248        -2.48414
O          3.79651        29.25686         0.73530
O         12.40046        26.69327        -1.58715
O          5.32513         9.84419        -1.08217
H          5.76787         9.94879        -1.95095
O         10.03328        39.41777         0.91574
H          9.94765        39.26541         1.87898
O          8.15050        33.14931         2.69489
H          8.83662        32.57228         3.09460
O         18.45255        24.28014        -2.39380
H         18.91898        23.69173        -3.03271
O         16.06716        16.80382         0.52253
H         15.27081        16.44117         0.96429
O         19.96171        30.70992         3.81133
H         20.10230        31.65840         4.07252
O         18.46005        15.63634        -3.15016
H         18.74046        16.32322        -3.79462
O          0.84532        11.98938         0.17941
H         -0.01664        11.55085         0.33905
O         10.10373         8.66369         1.28381
H         10.97733         9.08941         1.42087
O          2.66430        27.34556        -3.36635
H          1.99397        26.82635        -3.86105
O          7.12943        18.25385        -3.49051
H          7.10530        19.14587        -3.89911
O         17.39075        34.01463         4.09701
H         16.48812        34.06875         4.50198
O         13.62650        11.96638        -2.94129
H         12.93426        11.34148        -3.24972
O         18.50369        15.76621         0.49081
H         18.29627        15.11469         1.19205
O          8.92470        28.13167        -1.88784
H          9.06572        27.35354        -2.46857
O          6.18451         8.96934         3.01451
H          5.90061         9.82566         3.41771
O         13.32126        22.74201         0.65921
H         13.89779        23.28151         1.24499
O         14.38839        25.99468         2.08215
H         14.17590        26.73296         2.69665
O          5.54763        14.81352        -2.55093
H          5.30301        13.87046        -2.69888
O          6.34679        16.45207         0.61270
H          6.38737        17.39109         0.89025
O          5.24492        39.65484        -0.46923
H          5.38945        39.38762        -1.39979
O          4.45365        35.28739         1.82867
H          4.49115        36.13864         2.31210
O          9.21862        26.26693         1.28815
H          9.01317        27.06239         1.84349
O         20.07677        33.46156         3.91570
H         19.27682        33.77725         4.40473
O          0.65052        23.22980        -3.35297
H          0.65621        22.25628        -3.47616
H          1.69466         2.98405         3.65887
H         -0.26291         4.37115         4.25981
H         -0.23473         6.80079         4.04925
H         -0.27290         8.66935         3.65728
H         -0.41057        10.98531         2.89941
H         -0.37996        13.02891         2.76895
H         -0.42773        15.32941         2.02905
H         -0.73591        16.98964         1.01258
H         -0.86503        19.30208         0.31351
H         -0.94027        21.12610        -0.25721
H         -1.03085        23.45898        -0.90799
H         -1.09144        25.25432        -1.95881
H         -1.06742        27.69375        -1.66788
H         -0.95184        29.68043        -2.14250
H         -0.86247        32.10075        -1.86330
H         -0.86388        33.96957        -1.56166
H         -0.72301        36.41640        -1.50922
H          0.60445        38.49716        -1.20887
H          4.13289         2.84754         2.86758
H          2.75475        39.60447        -0.59589
H          6.44204         2.74665         2.23767
H          4.82419        38.82531         1.35922
H          8.79184         2.59353         1.62348
H          7.61208        39.30343         0.18713
H         11.24051         2.49140         1.03205
H         10.13166        38.36569        -0.84227
H         13.64398         2.43171         0.59151
H         12.52390        39.00332         0.48423
H         16.17645         2.42623         0.37045
H         14.94773        38.88900         0.69763
H         18.62486         2.47577         0.31970
H         17.36475        38.79415         0.81874
H         20.74552         3.72953         0.15533
H         21.96065         5.89693         0.02573
H         21.96783         8.33966        -0.21454
H         21.94424        10.22083        -0.68987
H         21.91326        12.64010        -0.86922
H         21.89097        14.53617        -0.51907
H         21.93317        16.85509        -1.10994
H         22.09353        18.72451        -1.03991
H         21.89705        21.04476        -0.39619
H         21.96449        23.02877        -0.50734
H         21.73559        25.09464         0.73186
H         21.61714        26.61644         1.70592
H         21.58882        28.94943         2.46569
H         21.44258        30.85574         1.08351
H         21.55735        33.32165         1.19409
H         21.81368        35.17191         2.29245
H         21.89786        37.55510         1.58783
H         19.79784        38.75806         0.98377
