         300
 CSIRO Nanostructure Databank - Neutral Graphene Oxide Data Set
C         30.27763        31.54330         0.39715
C         30.25135        32.77705         0.42310
C         30.35734        36.02474         1.17796
C         30.44754        37.22595         1.45462
C         30.33858        40.52895         1.22782
C         30.31693        41.75644         1.36593
C         32.62030        28.75953        -0.62639
C         31.59626        29.30378        -0.21089
C         32.68069        31.48528        -0.08964
C         31.43846        30.65682         0.31924
C         32.59088        33.00378        -0.20082
C         31.28250        33.76841         0.08499
C         32.71821        35.90693         0.77811
C         31.36198        35.19934         0.49135
C         32.72396        37.42526         0.54474
C         31.40290        38.12937         0.77202
C         32.56598        40.38633         0.26873
C         31.30190        39.60298         0.63378
C         32.60702        41.84652         0.68338
C         31.24309        42.66219         0.58481
C         32.70447        44.54022         0.85157
C         31.59257        44.04371         1.08463
C         35.49574        27.19273        -0.96943
C         35.14641        28.59163        -0.66984
C         33.90673        29.28283        -1.19576
C         35.20295        31.56510        -0.51631
C         33.89142        30.83246        -0.77124
C         35.11755        32.89337         0.27992
C         33.88735        33.73275        -0.03321
C         35.11156        35.87528         0.09650
C         33.93211        35.19792         0.24217
C         35.06014        37.33545        -0.34917
C         33.86430        38.11365         0.22674
C         35.14879        40.36494         0.19359
C         33.85277        39.61721         0.06634
C         35.17550        41.73352         0.36850
C         33.95107        42.52017         0.70192
C         35.14077        44.69425         0.22167
C         34.02127        44.03112         0.60806
C         35.42460        46.08298         0.03476
C         37.77472        27.11441        -0.10599
C         36.53170        26.55774        -0.77011
C         37.80004        28.59128        -0.61735
C         36.45254        29.34673        -0.42381
C         37.65812        31.47340         0.19286
C         36.47403        30.81656        -0.48680
C         37.64656        32.98900         0.03418
C         36.37056        33.73336         0.17955
C         37.58299        35.88682         0.50458
C         36.36389        35.10408         0.11924
C         37.55152        37.38559         0.44633
C         36.47341        38.05781        -0.41826
C         37.70924        40.36295        -0.04287
C         36.36514        39.65835        -0.40064
C         37.73404        41.82877         0.28408
C         36.43860        42.54444         0.62516
C         37.68011        44.83796         0.49900
C         36.46905        43.94651        -0.05244
C         37.76192        46.16562        -0.31413
C         36.41508        46.80113        -0.19225
C         40.34402        24.38930        -0.71033
C         39.28130        25.06966        -0.62985
C         40.33776        27.08861        -0.20545
C         39.08729        26.42738        -0.37450
C         40.29164        28.54995         0.13564
C         39.00472        29.32576        -0.01610
C         40.22466        31.53881         0.48216
C         39.02294        30.83952        -0.26217
C         40.23765        33.01753         0.09698
C         38.91602        33.74693         0.17803
C         40.19967        35.88566         0.47790
C         38.89269        35.13098         0.81150
C         40.17874        37.37109         0.43876
C         38.86872        38.11468         0.61709
C         40.22573        40.28047         0.19066
C         38.90721        39.59075         0.42783
C         40.28529        41.69890         0.76880
C         38.99462        42.53575         0.73700
C         40.29785        44.73279         0.29153
C         39.01378        44.05045         0.63984
C         40.30185        45.95235        -0.31400
C         39.08830        46.77550        -0.61530
C         40.36757        49.02531        -0.93832
C         39.50072        48.16958        -0.81189
C         42.94190        24.42982        -0.55305
C         41.61155        24.96559        -0.53950
C         42.87787        27.14029        -0.14669
C         41.58210        26.38897        -0.29036
C         42.83646        28.62553        -0.38825
C         41.60225        29.30657         0.16095
C         42.82830        31.55299        -0.04688
C         41.57088        30.79747         0.27652
C         42.82300        33.03640         0.12518
C         41.52851        33.80151         0.19331
C         42.72213        35.84329         1.24099
C         41.48052        35.15782         0.70887
C         42.75308        37.29816         0.62004
C         41.44525        38.10457         0.90120
C         42.79196        40.36771         0.55223
C         41.51239        39.52755         0.31993
C         42.71209        41.74185        -0.24754
C         41.57297        42.49111         0.44580
C         42.89710        44.67072         0.04763
C         41.58690        43.98095         0.38037
C         42.86528        46.09620        -0.42081
C         41.53139        46.40944        -1.02489
C         42.75724        49.09240        -1.10230
C         41.57211        49.76585        -1.25958
C         44.01672        25.04551        -0.56285
C         45.45495        27.18972        -0.79787
C         44.24720        26.45922        -0.25308
C         45.46416        28.72767        -0.51904
C         44.12718        29.40412        -0.51022
C         45.29663        31.51232         0.06162
C         44.12950        30.81726        -0.04680
C         45.27852        32.82821         0.75232
C         44.01911        33.65182         0.76174
C         45.23252        35.79398         0.96743
C         44.04130        35.12732         0.91198
C         45.28136        37.21028         1.49396
C         43.95366        38.03715         1.27285
C         45.33453        40.04800         0.65583
C         44.04274        39.57118         0.16982
C         45.19172        41.78580        -0.95220
C         44.05017        42.50480        -0.28641
C         45.40624        44.64753        -0.41217
C         44.11130        43.86678        -0.23543
C         45.24822        46.09850        -1.34510
C         44.03328        46.88042        -0.92418
C         43.62853        48.16277        -1.15386
C         47.86343        27.39557        -0.38841
C         46.81051        26.75876        -0.29225
C         47.96737        28.81979        -0.74244
C         46.61017        29.47057        -0.49695
C         47.81823        31.78622        -0.43516
C         46.51333        30.99202        -0.68886
C         47.84570        32.99596         0.45085
C         46.56308        33.54470         1.01927
C         47.79390        35.74611         0.86023
C         46.52528        35.06422         1.08038
C         47.82588        37.17693         0.53842
C         46.70804        38.04324         1.11351
C         47.88517        40.25458         0.42881
C         46.60287        39.37230         0.22088
C         47.87218        41.59334        -0.35358
C         46.61130        42.31170        -0.78045
C         47.93320        44.51972        -1.14750
C         46.61284        43.82228        -0.95048
C         47.72204        45.97785        -0.99117
C         46.65787        46.59228        -1.11305
C         50.59985        29.28559        -1.14702
C         49.17277        29.63709        -1.06785
C         50.40719        31.99681        -0.63509
C         49.10136        31.21285        -1.07104
C         50.42231        32.97146         0.56135
C         49.09763        33.51208         1.17257
C         50.30074        35.84711         1.35281
C         49.04145        35.05310         1.20616
C         50.46068        37.21561         0.60848
C         49.12815        37.90211         0.29023
C         50.39784        40.19283         0.41457
C         49.15779        39.43813        -0.02670
C         50.43504        41.62226        -0.04832
C         49.11404        42.47367        -0.07211
C         50.47043        44.36704        -0.54582
C         49.22672        43.71314        -1.09262
C         51.57868        30.00398        -1.36567
C         52.90180        32.09804        -0.43108
C         51.78231        31.43482        -1.10468
C         52.82674        33.22957         0.08631
C         51.72341        33.67451         0.95757
C         52.67536        36.04507         1.53033
C         51.67018        34.97589         1.75055
C         52.65979        37.27574         1.52601
C         51.41497        38.13552         1.44919
C         52.63045        40.43397         1.02243
C         51.50436        39.54550         0.92573
C         52.73879        41.65601         0.80925
C         51.77036        42.42999         0.03746
C         51.50086        43.87113        -0.08512
O         33.29042        42.04717         1.95070
O         45.32849        36.97582         2.87068
O         37.99376        41.36198        -1.06270
O         51.06891        32.39833        -1.88295
O         43.72173        26.82975         1.02747
O         38.31607        33.56264        -1.15041
O         41.88820        43.25943         1.63389
O         42.99546        45.79086         1.00786
O         43.27966        29.09966        -1.68160
O         33.27464        33.53556        -1.35106
O         47.49161        41.60966        -1.73261
O         34.51627        31.58340        -1.82156
O         40.83401        33.50039        -1.11357
O         38.79326        39.01635         1.76304
O         36.00992        40.00277        -1.71400
O         30.85790        38.73677        -0.42734
O         44.95925        41.09132        -1.94446
O         46.64276        34.15976         2.30491
O         39.43754        28.89342         1.29087
O         31.03690        34.82703        -0.85592
O         40.91206        39.78300        -0.97703
O         51.24482        32.50685         1.67932
O         42.93610        32.44670        -1.20604
O         48.35090        29.08229        -2.12192
O         41.45612        46.82374        -2.16983
O         33.03447        40.10917        -1.06098
O         32.45181        30.99004         1.27600
O         40.22124        36.63396        -0.81887
O         47.09792        44.13167        -2.30077
O         51.35909        41.77968        -1.17587
O         41.86256        29.94711         1.44286
O         49.44120        35.75294         2.48709
O         37.15769        36.72489         1.67399
O         38.26963        46.10100        -1.65302
O         38.96859        43.35697         1.93137
O         47.76331        33.16945        -0.98916
O         48.39604        37.29436        -0.82560
O         34.60040        37.24794        -1.78728
O         35.54142        28.89372         0.67735
O         44.41780        32.86202         1.93621
O         45.41120        27.01600        -2.19808
H         46.18715        27.45230        -2.60930
O         43.94243        39.20080        -1.14324
H         44.81246        38.89139        -1.49981
O         48.93038        31.46890        -2.47529
H         48.88738        32.44145        -2.60831
O         45.08773        45.77645        -2.69185
H         45.89687        45.30675        -3.00978
O         51.09963        36.92574        -0.64126
H         50.45948        37.07244        -1.37119
O         38.03226        28.52768        -2.03183
H         38.27874        29.42789        -2.35297
O         40.38409        41.34321         2.18519
H         40.23104        42.17357         2.69870
O         42.94016        37.09471        -0.77111
H         42.05891        36.92998        -1.19169
O         49.52322        43.22462        -2.37705
H         48.78860        43.45367        -2.98923
O         37.45026        31.23605         1.61037
H         37.49852        30.27080         1.79127
O         36.46067        42.72249         2.06556
H         35.54015        42.74258         2.40750
O         35.17722        36.06551        -2.38383
H         36.10115        36.36716        -2.59558
O         34.98434        32.52772         1.67455
H         35.79997        32.03745         1.94972
O         45.42649        40.60289         1.85488
H         44.52044        40.83870         2.21166
O         37.53845        27.12980         1.28975
H         37.54050        26.21223         1.63120
O         46.20923        31.18062        -2.08654
H         47.04531        31.04091        -2.59749
O         48.95341        43.07884         1.21266
H         48.71788        42.37697         1.86534
O         49.04732        33.01973         2.51576
H         48.32184        33.49893         2.98501
O         42.33732        41.61408        -1.61160
H         43.03667        41.09514        -2.08006
O         33.94769        29.19237        -2.59681
H         33.21178        29.70422        -2.98971
O         32.85170        35.73201         2.22433
H         33.72706        36.06955         2.50978
O         41.24978        38.25779         2.31501
H         41.57696        37.44109         2.77099
O         43.62622        38.55573         2.47825
H         44.33154        38.20420         3.12387
O         39.16750        31.02345        -1.67392
H         39.05596        31.98962        -1.87932
O         42.89438        40.75674         1.92582
H         41.98225        40.81337         2.33338
O         49.17853        39.46948        -1.47950
H         49.57274        40.31266        -1.79637
O         46.51050        39.00093        -1.14654
H         47.39998        39.07242        -1.58612
O         30.84289        42.71836        -0.74523
H         29.95424        43.12140        -0.81618
O         36.62617        43.73290        -1.44265
H         36.72697        44.58983        -1.90970
O         45.76934        45.04645         0.91235
H         44.99146        45.49806         1.31902
O         47.21071        38.38183         2.39525
H         46.64404        37.82822         3.04556
O         42.67539        35.95122         2.68066
H         43.60331        36.16743         2.98921
O         50.86194        38.21358         2.75985
H         51.51887        38.61664         3.36449
O         41.49261        51.05320        -1.64639
H         40.56162        51.34514        -1.69184
O         39.96261        31.56119         1.88394
H         40.23378        30.68720         2.25620
O         38.93790        34.89786         2.23047
H         38.42530        35.61622         2.67069
O         37.34232        45.27839         1.81694
H         37.36861        44.48741         2.40770
O         48.05032        40.67649         1.78154
H         47.88812        39.90611         2.39012
O         37.02366        37.81136        -1.73223
H         36.65909        38.55245        -2.30201
O         51.59617        34.66252         3.11038
H         51.17888        33.77522         3.20795
