         294
 CSIRO Nanostructure Databank - Neutral Graphene Oxide Data Set
C          1.20451         2.07983        -0.33003
C          1.13895         3.47109         0.03021
C          2.38564         1.39462        -0.33261
C          2.24993         4.16684         0.41159
C          1.00221         6.38386         0.56373
C          1.00698         7.70118         0.31567
C          2.21075         5.57752         1.00392
C          2.16218         8.63792         0.58864
C          1.34626        10.48324        -1.04908
C          1.30441        11.82404        -1.07417
C          2.50107         9.66428        -0.51517
C          2.31072        12.65649        -0.30573
C          1.12438        14.94867        -0.51323
C          1.17532        16.29454        -0.45599
C          2.39875        14.15088        -0.73898
C          2.44265        17.02710        -0.57771
C          2.45826        18.45786        -0.79476
C          3.62333         2.05904        -0.01874
C          3.55055         3.45989         0.44748
C          4.84474         1.45423        -0.23495
C          4.85452         4.24987         0.39567
C          3.45092         6.37212         0.57172
C          3.44580         7.83604         0.90929
C          4.74231         5.72765         0.17148
C          4.77121         8.52602         0.98270
C          3.66112        10.51624        -0.00908
C          3.70770        11.97456        -0.42198
C          4.77828         9.93488         0.50873
C          4.73303        12.71661         0.46749
C          3.54210        14.90856         0.00356
C          3.63016        16.34851        -0.47190
C          4.84487        14.15417         0.05692
C          4.92904        17.01623        -0.76389
C          3.63132        19.15015        -0.81698
C          4.93922        18.52098        -0.75814
C          6.09416         2.16958        -0.21152
C          6.09136         3.57887        -0.01471
C          7.30049         1.47726        -0.46384
C          7.28956         4.35659        -0.12284
C          6.02601         6.56537        -0.02135
C          6.07758         7.70222         1.03244
C          7.30258         5.73216         0.01136
C          7.34990         8.52226         0.83922
C          6.10915        10.58611         0.20979
C          6.06915        12.05345         0.44212
C          7.33843         9.91225         0.73435
C          7.18414        12.83243         0.91902
C          6.07314        14.81498         0.04858
C          6.16625        16.15288        -0.58570
C          7.21728        14.25924         0.68053
C          7.50890        16.75497        -0.53051
C          6.02480        19.36512        -0.59991
C          7.42220        18.98512        -0.62131
C          8.56306         2.13742        -0.47164
C          8.56262         3.65272        -0.55344
C          9.74425         1.41676        -0.44984
C          9.80925         4.21159         0.13845
C          8.59067         6.52733        -0.09860
C          8.56481         7.80282         0.73421
C          9.86690         5.72086         0.11847
C          9.83650         8.50644         0.96315
C          8.61546        10.66986         0.43074
C          8.57431        12.10273         0.95790
C          9.84733        10.02586         1.07338
C          9.78499        12.93003         0.76374
C          8.42908        15.08110         1.09419
C          8.50174        16.38766         0.30475
C          9.74488        14.28720         0.86435
C          9.74652        17.26385         0.55015
C          8.52110        19.48828         0.00711
C          9.77620        18.69707        -0.06104
C         11.09254         2.01043        -0.10332
C         11.10292         3.53341        -0.41145
C         12.32021         1.31030        -0.73839
C         12.35964         4.15580         0.15702
C         11.04698         6.34767         0.34155
C         11.10773         7.79706         0.68107
C         12.33337         5.61284         0.49878
C         12.26560         8.54009         0.05042
C         11.10377        10.69259         0.53695
C         11.06272        12.19646         0.32488
C         12.27678        10.03743         0.29960
C         12.27766        12.82567         1.00155
C         11.00844        15.08019         0.73474
C         10.93794        16.42371         0.00891
C         12.30220        14.33326         0.71626
C         12.24827        17.22110         0.17500
C         10.93984        19.27904        -0.45197
C         12.22060        18.51230        -0.73402
C         13.63370         2.02143        -0.40436
C         13.63607         3.47139        -0.19275
C         14.82105         1.33668        -0.44534
C         14.80285         4.17897        -0.25311
C         13.63156         6.39422         0.45975
C         13.61510         7.93334         0.49078
C         14.84618         5.65096        -0.00492
C         14.76481         8.64812        -0.28830
C         13.57090        10.76170         0.29320
C         13.56180        12.11337         0.62193
C         14.82970        10.08284         0.20286
C         14.80679        12.83505         0.89930
C         13.48015        14.86293        -0.09353
C         13.42814        16.37531        -0.26329
C         14.76078        14.33563         0.61446
C         14.41717        17.02390        -0.91790
C         13.54984        19.23604        -0.61442
C         14.68886        18.46887        -0.86318
C         16.12200         1.98752        -0.36503
C         16.13108         3.47629        -0.04818
C         17.29015         1.31464        -0.60161
C         17.26214         4.13849        -0.84899
C         16.03984         6.41996        -0.49579
C         16.09620         7.91570        -0.26443
C         17.31449         5.67330        -0.69867
C         17.36298         8.59640         0.12866
C         16.07732        10.70771         0.55630
C         16.11696        12.14042         0.87977
C         17.28177         9.99283         0.59974
C         17.32913        12.82321         0.99701
C         16.08007        15.01676         0.52053
C         16.30868        16.07789        -0.42268
C         17.40116        14.30455         0.97251
C         17.40572        16.90341        -0.36144
C         16.03072        18.96916        -0.95936
C         17.30461        18.29434        -0.83022
C         18.60282         1.99273        -0.98116
C         18.59702         3.46010        -0.51006
C         19.93050         1.43843        -0.49197
C         19.78413         4.25918        -0.97970
C         18.56433         6.31669        -0.13546
C         18.58286         7.73759         0.37976
C         19.86317         5.58570        -0.36623
C         19.89177         8.48526         0.43269
C         18.58015        10.60295         1.05349
C         18.61000        12.11712         0.94907
C         19.78863        10.01535         0.27273
C         19.81989        12.76762         0.90828
C         18.64488        14.97758         0.55492
C         18.63199        16.27276         0.07271
C         19.90898        14.24261         0.77862
C         19.84640        16.91483        -0.55374
C         18.49113        19.01915        -0.87206
C         19.79521        18.43474        -0.36055
C         21.04581         2.16775        -0.67494
C         21.02280         3.51448        -1.41031
C         22.28248         4.34741        -1.31049
C         21.17700         6.31882        -0.29977
C         21.17946         7.81037        -0.05680
C         22.33574         5.63808        -0.93807
C         21.06256         8.25107         1.38741
C         21.00995        10.56272         0.98798
C         21.15975        12.05844         1.13275
C         21.63757         9.59187         1.68262
C         22.23220        12.64199         0.22286
C         21.20474        14.88561         0.34260
C         21.17690        16.28925        -0.18151
C         22.28052        13.95132        -0.07645
C         22.29717        17.01372        -0.42167
C         21.04625        19.06586        -0.93116
C         22.21132        18.38543        -0.91102
O          9.88530        17.41433         1.93870
O         16.57777         6.21606        -1.84595
O         12.28445         4.58290         1.55560
O          3.97846         8.24099         2.20767
O          7.86359        12.31598         2.14425
O          5.54753        16.28630        -1.90764
O          3.74090         6.08801        -0.84234
O         14.61573         5.92642         1.43494
O         18.36764         6.63989         1.30054
O         20.72056         5.57536         0.87389
O         20.84170        14.84251         1.77443
O         14.56509        13.84285         1.95368
O         10.72921         7.98780         2.06894
O         16.96186         8.52364        -1.29625
O         16.64317        15.16932         1.85143
O         11.91534        15.09713         1.88279
O         15.42606        16.22632        -1.49429
O          8.68920         4.02745        -2.00977
O          4.31268         3.77542         1.68069
O          7.68835        17.83225        -1.40928
O          8.84700        10.73081        -0.99800
H          7.95813        10.64084        -1.44408
O         13.76375         8.31262         1.87178
H         14.21873         7.57989         2.34614
O         12.19294         1.23705        -2.16122
H         12.07938         2.16154        -2.48653
O          1.78980         9.44497         1.72898
H          2.32622         9.13728         2.49702
O          2.19205         5.44382         2.43772
H          2.92132         4.82332         2.67592
O         11.24663         3.74195        -1.83558
H         10.36525         3.63919        -2.27229
O          8.34852        15.36931         2.49824
H          8.97110        16.14861         2.63474
O          6.24587        10.34726        -1.28620
H          6.13682         9.37346        -1.42804
O          1.85786        12.64452         1.06585
H          1.87766        11.71432         1.39106
O         11.98687         8.31276        -1.34610
H         12.67747         8.76310        -1.88748
O         12.42675        17.62947         1.52192
H         11.53291        17.60042         1.98444
O          9.79087        10.36895         2.46909
H         10.42877         9.78436         2.93857
O          6.19800         7.06319         2.31279
H          5.48582         7.41035         2.89905
O         19.79971        18.68474         1.07386
H         19.82130        19.65305         1.21960
O         14.44021         8.69590        -1.70629
H         15.28597         8.90374        -2.17023
O         22.01229         8.52245        -0.94694
H         22.29389         9.35147        -0.49949
O         18.77356        10.21469         2.43992
H         18.11207        10.68726         2.98706
O         10.70213        16.12845        -1.38943
H          9.73270        16.08453        -1.54398
O          5.94921         7.23521        -1.30419
H          5.05796         7.02939        -1.68362
O         20.92637         3.21329        -2.83685
H         20.14217         2.60997        -2.94625
O         12.11639        12.61163         2.41341
H         12.66108        13.28563         2.87956
O         16.98223         3.84449        -2.23716
H         16.55992         4.64993        -2.62840
O          3.03937         8.92972        -1.64414
H          3.39425         9.59443        -2.27474
O          9.66193         3.86253         1.53893
H         10.42094         4.28369         2.01525
O          4.25985        12.60790         1.86086
H          4.90847        13.08051         2.42677
O         12.19385        18.13284        -2.13575
H         11.52324        17.41178        -2.23936
O         16.38828         3.67189         1.36181
H         15.57932         3.42998         1.86012
O          4.13290        11.99330        -1.79422
H          3.81882        12.83405        -2.21226
O         21.57106        12.32373         2.49319
H         21.50215        13.30255         2.62131
O         19.68725        10.41995        -1.09434
H         20.35143         9.91545        -1.61156
O          7.49801         3.56951        -2.69461
H          7.54005         2.58492        -2.59507
O          8.67622         6.99832        -1.48705
H          8.48656         6.22493        -2.06592
O          2.66575        14.17273        -2.16417
H          2.86265        15.10095        -2.41885
O          3.14322        15.02310         1.40202
H          2.83082        14.12806         1.69447
O         13.43125        14.23497        -1.38996
H         13.97448        14.76981        -2.00953
O         18.79119         3.36976         0.91900
H         18.74706         4.26188         1.32728
O         11.16776        12.39877        -1.10004
H         10.46595        11.84516        -1.51821
O         18.64287         1.87437        -2.43040
H         17.89105         2.41335        -2.78133
O         11.27368         1.79370         1.31424
H         10.51658         2.22788         1.77653
O         19.69623        16.69886        -1.99035
H         19.70714        15.73474        -2.16342
H          0.27058         1.56786        -0.59961
H          0.14977         3.94889         0.02480
H          2.41618         0.33251        -0.61547
H          0.05488         5.83930         0.43019
H          0.06512         8.18320         0.00882
H          0.56074         9.91083        -1.56820
H          0.45528        12.33519        -1.55469
H          0.16018        14.42060        -0.47473
H          0.25063        16.88304        -0.35628
H          1.50016        18.99111        -0.87298
H          4.86501         0.40075        -0.55360
H          3.60772        20.24682        -0.90557
H          7.27910         0.37857        -0.51920
H          5.79968        20.43568        -0.45793
H          9.66861         0.31763        -0.41026
H          8.48049        20.41464         0.59991
H         12.36497         0.25946        -0.35681
H         10.91409        20.33079        -0.78437
H         14.80639         0.25262        -0.64141
H         13.61268        20.31392        -0.39886
H         17.23039         0.23255        -0.80999
H         16.10872        20.06514        -1.06697
H         19.97512         0.45536         0.00124
H         18.46011        20.10050        -1.08762
H         22.02162         1.78436        -0.33727
H         23.18510         3.88330        -1.73782
H         23.27671         6.20300        -1.01781
H         21.01603         7.46990         2.16245
H         22.46222         9.74913         2.38890
H         23.04384        11.97844        -0.11455
H         23.09640        14.34858        -0.70006
H         23.29577        16.58580        -0.24766
H         21.01552        20.11531        -1.26320
H         23.14089        18.86637        -1.24995
