         424
 CSIRO Nanostructure Databank - Neutral Graphene Oxide Data Set
C          1.02327         4.00594         1.65240
C         -0.12591         4.56420         1.19159
C          1.02379         6.53685         0.26897
C         -0.14832         5.87876         0.60748
C          1.06965         7.85823        -0.28154
C         -0.09021         8.54550        -0.66851
C          1.19829        10.52561        -1.35169
C         -0.04236         9.86551        -1.10638
C          1.18067        11.92152        -1.88092
C         -0.02506        12.74845        -1.79387
C          1.26223        14.85058        -1.86677
C          0.02738        14.10479        -1.90349
C          1.25316        16.29091        -1.82434
C          0.07499        17.05481        -2.04796
C          1.24331        19.13595        -1.52292
C          0.07403        18.42776        -1.91923
C          1.22140        20.57672        -1.27622
C          0.02917        21.30457        -1.21355
C          1.20549        23.41151        -0.77353
C          0.01736        22.68060        -0.95838
C          1.20402        24.81868        -0.42509
C          0.00244        25.54933        -0.27208
C          1.20148        27.57694         0.38784
C          0.00053        26.86992         0.15328
C          1.19527        28.91589         0.92179
C          0.12779        29.38523         1.68903
C          1.45623        31.29388         2.42399
C          0.25566        30.54919         2.45234
C          1.50550        33.56366         2.79330
C          0.35663        34.30600         3.08727
C          1.37449        36.25294         2.09005
C          0.26192        35.63488         2.68247
C          1.35450        37.66696         1.82798
C          3.54717         3.93989         1.61160
C          2.30752         4.79692         1.59942
C          3.56832         6.54282         0.29693
C          2.30180         5.72538         0.38030
C          3.60910         7.77518        -0.27061
C          2.36976         8.64384        -0.22452
C          3.71379        10.45697        -1.58348
C          2.39748         9.86852        -1.10783
C          3.69124        11.93862        -1.36065
C          2.52255        12.68935        -1.77925
C          3.67265        14.86850        -1.38329
C          2.47612        14.15826        -1.65966
C          3.68772        16.27152        -1.36101
C          2.45807        16.99739        -1.53157
C          3.65230        19.08816        -0.78857
C          2.43466        18.40686        -1.36157
C          3.66734        20.56042        -1.09231
C          2.47042        21.28254        -1.11965
C          3.65530        23.41139        -0.62825
C          2.45800        22.71986        -0.89617
C          3.67181        24.78526        -0.24704
C          2.44023        25.49846        -0.18001
C          3.68196        27.54179         0.41980
C          2.44576        26.88865         0.16785
C          3.67130        28.92612         0.92622
C          2.43042        29.76837         0.72028
C          3.72649        31.84329         1.45773
C          2.52372        31.02635         1.57571
C          3.74180        33.28979         1.60107
C          2.59751        34.07525         2.04459
C          3.73027        36.18021         1.39811
C          2.55595        35.49195         1.80924
C          3.72422        37.61382         1.28401
C          2.48449        38.32594         1.44596
C          6.01421         3.82632         1.48805
C          4.77359         4.48804         1.28234
C          6.12631         6.57632         0.56795
C          4.78920         5.91606         0.86195
C          6.15001         7.74815        -0.27351
C          4.89719         8.31443        -0.86302
C          6.16074        10.48297        -0.94493
C          4.94197         9.81178        -0.98724
C          6.19831        11.92458        -1.03332
C          4.90354        12.62831        -0.94188
C          6.20379        14.81130        -1.28084
C          4.91361        14.14898        -1.01849
C          6.18681        16.25539        -1.33117
C          4.94590        16.97764        -1.22537
C          6.18378        19.08244        -1.03471
C          4.95377        18.37652        -1.09303
C          6.20940        20.50718        -0.92952
C          4.94475        21.24903        -1.11233
C          6.15208        23.27995        -0.11759
C          4.94096        22.73875        -0.83923
C          6.16218        24.78403        -0.11444
C          4.92287        25.46777        -0.02802
C          6.16619        27.56939         0.42589
C          4.91264        26.86606         0.28509
C          6.19365        28.98263         0.67336
C          4.96581        29.69378         1.04655
C          6.11018        31.87832         0.72471
C          4.91737        31.17754         1.05058
C          6.11022        33.32265         0.79244
C          4.91437        34.00627         1.20442
C          6.13903        36.16615         0.95421
C          4.93174        35.44785         1.18880
C          6.14705        37.60700         0.95428
C          4.91731        38.30379         1.07447
C          8.49355         3.81334         1.62238
C          7.26475         4.47247         1.30219
C          8.59342         6.41666         0.54229
C          7.34713         5.79068         0.78037
C          8.65273         7.71322        -0.06591
C          7.45038         8.26970        -0.80091
C          8.62035        10.49061        -0.86324
C          7.42639         9.79345        -0.80533
C          8.66706        11.91730        -1.08999
C          7.39863        12.62816        -1.15053
C          8.63023        14.74703        -1.74642
C          7.38147        14.06742        -1.35213
C          8.65213        16.26347        -1.63396
C          7.40057        16.96467        -1.31342
C          8.66318        19.07201        -1.09420
C          7.42141        18.37053        -1.13025
C          8.66624        20.49128        -0.95693
C          7.41527        21.20966        -0.85175
C          8.61008        23.35771        -0.59728
C          7.43352        22.63997        -0.59309
C          8.64948        24.76592        -0.25445
C          7.38912        25.47554        -0.02990
C          8.66880        27.58455         0.47005
C          7.37594        26.87124         0.20578
C          8.61699        29.06489         0.19702
C          7.37115        29.73939         0.45880
C          8.49935        31.87619        -0.04157
C          7.30033        31.16002         0.40972
C          8.50381        33.39436         0.04095
C          7.29437        34.05668         0.54714
C          8.59244        36.17413         0.56852
C          7.34867        35.46533         0.70541
C          8.59587        37.61082         0.70294
C          7.36598        38.29804         0.84246
C         10.95085         3.72244         1.96248
C          9.71376         4.45128         1.49938
C         11.03960         6.47529         0.86394
C          9.79504         5.77639         0.96487
C         11.07441         7.79722         0.34343
C          9.86188         8.38859        -0.14276
C         11.18511        10.49587        -0.75702
C          9.89186         9.72613        -0.78525
C         11.14924        11.96179        -0.93636
C          9.89885        12.59777        -1.19466
C         11.16278        14.79850        -1.37789
C          9.95225        13.98071        -1.80749
C         11.15863        16.22485        -1.39896
C          9.92921        16.96306        -1.42481
C         11.13902        19.08311        -1.10257
C          9.90827        18.35707        -1.19967
C         11.11815        20.50899        -1.02265
C          9.88054        21.20481        -0.97435
C         11.12563        23.38729        -0.81587
C          9.84166        22.70000        -1.17666
C         11.12352        24.77159        -0.53412
C          9.86672        25.45468        -0.24172
C         11.05985        27.60068        -0.20283
C          9.89873        26.89045        -0.05961
C         11.02484        29.06506        -0.53259
C          9.78969        29.76750        -0.03630
C         11.00077        31.91906        -0.16415
C          9.79842        31.19253        -0.06999
C         10.99190        33.34835        -0.06838
C          9.80957        34.06842         0.12322
C         11.05935        36.19935         0.37788
C          9.81146        35.48785         0.35397
C         11.05116        37.62962         0.56644
C          9.81882        38.30921         0.68599
C         13.41803         3.86146         2.12677
C         12.23821         4.49007         1.77821
C         13.48375         6.54169         1.21887
C         12.25317         5.83497         1.29044
C         13.51563         7.90173         0.76502
C         12.31881         8.52713         0.30650
C         13.56841        10.62274        -0.08538
C         12.37348         9.87335        -0.14594
C         13.58745        12.00680        -0.50012
C         12.36688        12.67037        -0.90075
C         13.59957        14.82495        -1.15339
C         12.37046        14.10697        -1.15688
C         13.61420        16.22195        -1.24338
C         12.39219        16.94138        -1.27844
C         13.58877        19.12324        -1.17254
C         12.38282        18.38912        -1.18761
C         13.58185        20.53493        -1.06590
C         12.35020        21.23494        -0.99812
C         13.57075        23.37638        -0.80207
C         12.33873        22.67146        -0.88483
C         13.56784        24.79476        -0.69060
C         12.34738        25.47677        -0.50061
C         13.56794        27.71655        -0.53076
C         12.38476        26.91418        -0.05246
C         13.55481        29.09681        -0.44381
C         12.30503        29.81861        -0.27086
C         13.52532        31.94207        -0.08614
C         12.27538        31.19941        -0.21519
C         13.51861        33.30891         0.06371
C         12.28510        34.09720        -0.28922
C         13.51011        36.20442         0.36196
C         12.28100        35.51176         0.23564
C         13.49703        37.63601         0.50139
C         12.27849        38.32634         0.57877
C         15.87109         3.89291         2.41550
C         14.67091         4.53609         2.04914
C         15.92852         6.60275         1.56667
C         14.69473         5.89786         1.61259
C         15.95878         7.97238         1.14699
C         14.74896         8.62169         0.75080
C         16.01625        10.70439         0.32092
C         14.77989         9.99020         0.34108
C         16.04228        12.07104        -0.11914
C         14.82156        12.69635        -0.49451
C         16.18181        14.77072        -1.17102
C         14.86512        14.05599        -1.06943
C         16.19295        16.26471        -1.51828
C         14.91038        16.97987        -1.02632
C         16.12725        19.15505        -1.17410
C         14.86396        18.42123        -1.57758
C         16.07944        20.56578        -1.01826
C         14.82917        21.26224        -1.00120
C         16.02844        23.39773        -0.65741
C         14.81166        22.66875        -0.84371
C         16.01321        24.84021        -0.63335
C         14.81044        25.51869        -0.72055
C         16.06842        27.70768        -0.80933
C         14.77151        26.98243        -1.07436
C         16.03102        29.19817        -1.06502
C         14.78378        29.87149        -0.53496
C         16.03268        31.99491        -0.27343
C         14.78653        31.21681        -0.23700
C         16.01566        33.34614         0.00721
C         14.76729        34.00584         0.54320
C         15.95721        36.21624         0.51956
C         14.76357        35.51161         0.39577
C         15.93808        37.64649         0.56907
C         14.74029        38.32968         0.57052
C         18.32415         3.92953         2.74126
C         17.09679         4.57436         2.36871
C         18.36908         6.64587         1.91131
C         17.12926         5.94268         1.94787
C         18.40532         8.01414         1.50179
C         17.19248         8.67996         1.11984
C         18.46748        10.75528         0.69183
C         17.22174        10.04679         0.70917
C         18.49558        12.13167         0.29866
C         17.29403        12.79083        -0.13352
C         18.56132        14.90297        -0.42238
C         17.36894        14.14778        -0.54963
C         18.57737        16.33648        -0.65974
C         17.39807        17.02322        -1.00388
C         18.56902        19.19420        -0.79747
C         17.34676        18.45243        -0.99676
C         18.55520        20.61414        -0.81687
C         17.28513        21.30597        -0.81757
C         18.52069        23.39792        -0.21493
C         17.24376        22.69656        -0.59739
C         18.44329        24.90488        -0.26321
C         17.27487        25.57154        -0.50336
C         18.51280        27.76351        -0.51626
C         17.24216        27.03759        -0.59797
C         18.51730        29.18538        -0.67623
C         17.31113        29.91343        -0.71554
C         18.53809        32.03355        -0.34804
C         17.28639        31.30907        -0.52256
C         18.52424        33.40439        -0.07980
C         17.24633        34.19023        -0.19391
C         18.48466        36.28611         0.28945
C         17.26701        35.45968         0.68200
C         18.42606        37.68805         0.20834
C         17.21771        38.43355         0.71397
C         19.51363         4.60559         2.70080
C         20.79090         6.68688         2.24812
C         19.56806         5.97685         2.28859
C         20.82587         8.01141         1.85298
C         19.64642         8.70494         1.47435
C         20.88595        10.82039         1.03463
C         19.67229        10.09378         1.06813
C         20.91206        12.15195         0.67704
C         19.72872        12.84245         0.31720
C         20.94656        15.00553         0.12330
C         19.75897        14.25240         0.00459
C         20.96533        16.37233        -0.11377
C         19.79825        17.06884        -0.47485
C         20.99766        19.26638        -0.62533
C         19.80752        18.50977        -0.64375
C         20.97893        20.65511        -0.77061
C         19.76814        21.34964        -0.84687
C         20.92979        23.65265        -0.92009
C         19.66127        22.85163        -1.09008
C         20.93459        24.91804        -0.48189
C         19.72134        25.61286         0.11802
C         20.87610        27.85568         0.12580
C         19.69513        27.09445        -0.17583
C         20.95493        29.18739        -0.12851
C         19.84036        29.89189        -0.85359
C         20.98923        32.11498        -0.55609
C         19.78609        31.35956        -0.52972
C         21.01640        33.44914        -0.25495
C         19.79218        34.14163         0.26889
C         20.78156        36.36436        -0.50606
C         19.69000        35.62543        -0.03266
C         20.69407        37.75134        -0.64219
C         19.53143        38.41446        -0.25694
O          5.11820        22.26456        -2.19543
O          4.28967        29.08261         2.23127
O         15.66429        14.01670        -2.33264
O         10.72635         9.78747        -1.98249
O          1.56895        32.30232         3.39245
O          8.27698        32.70908        -1.24281
O          5.37863         6.78197         1.87009
O          1.96792        12.16748        -3.08483
O          4.80259        13.47576         0.28369
O          8.50128        15.57629        -2.95080
O         17.37878        35.01598         2.05108
H         17.39539        35.80273         2.63291
O          5.96034        22.87125         1.27993
H          6.67611        23.27811         1.81221
O         14.78429        33.78676         2.00585
H         14.99030        32.84042         2.16079
O         14.79239        18.43458        -3.02548
H         15.49261        17.82090        -3.36481
O         18.83663        23.00278         1.16262
H         18.02085        23.11059         1.69601
O         17.09671        39.71540         0.08897
H         16.93517        39.57289        -0.86604
O          8.85833        27.48329         1.94331
H          8.05227        27.85652         2.36256
O         19.23813        23.02550        -2.46882
H         19.91147        22.61624        -3.05054
O          7.59364         7.83419        -2.19485
H          6.68129         7.81206        -2.58163
O         12.37363        34.25917        -1.76222
H         11.54312        34.69110        -2.05698
O          2.40353         9.17774         1.16051
H          2.40631         8.40997         1.77426
O         20.15566        29.79471        -2.30599
H         20.37333        28.85546        -2.48794
O         17.20601        34.68150        -1.57750
H         17.11548        33.90475        -2.16981
O         19.88094        25.48699         1.56764
H         19.78069        24.52288         1.76519
O          3.50390        18.99234         0.68220
H          3.43672        18.03929         0.90586
O          9.72262        22.88116        -2.64004
H          8.87496        22.47132        -2.91741
O          4.86024         7.81778        -2.27947
H          4.44133         8.54027        -2.82364
O         11.04127         2.44071         1.31353
H         11.12343         2.59449         0.35001
O         14.57527        26.98930        -2.53454
H         14.79368        27.90548        -2.84269
O         12.58217        26.84658         1.42257
H         11.72945        26.56332         1.81973
O         19.91958        34.06700         1.74477
H         19.78694        33.13029         2.00368
O         10.88605        29.07915        -2.00512
H         10.86111        30.01846        -2.28917
O         15.91808        29.34894        -2.54196
H         16.79326        29.11883        -2.92306
O          3.81503        10.18661        -3.05378
H          3.12127        10.76004        -3.47389
O         15.07052        17.06821         0.41775
H         14.29520        17.54838         0.77855
O         16.30756        16.34066        -2.96218
H         15.95388        15.48358        -3.31290
O          2.35046         5.66693         2.77439
H          2.47777         5.10413         3.56619
O         10.21106        13.71065        -3.22105
H          9.83538        14.47288        -3.72242
O          2.34507         4.85216        -0.78509
H          2.36027         5.41442        -1.58780
O          2.45957        30.16315        -0.68990
H          1.62359        30.63393        -0.88942
H          1.01299         3.02307         2.14780
H         -1.08209         4.03125         1.30320
H         -1.12543         6.36285         0.46712
H         -1.06523         8.03898        -0.63338
H         -0.98447        10.36003        -1.37619
H         -0.99829        12.26802        -1.62230
H         -0.91955        14.66136        -1.87987
H         -0.85878        16.55244        -2.33404
H         -0.85918        18.97539        -2.10888
H         -0.93573        20.79338        -1.33564
H         -0.95686        23.18263        -0.88722
H         -0.96381        25.06505        -0.46738
H         -0.96330        27.38298         0.27912
H         -0.77919        28.77394         1.80015
H         -0.53623        30.84358         3.15234
H         -0.45206        33.83248         3.65872
H         -0.64120        36.22242         2.89922
H          0.41462        38.21442         1.99088
H          3.49858         2.92510         2.03808
H          2.47659        39.41455         1.29216
H          6.00433         2.79012         1.85661
H          4.91359        39.40284         1.03222
H          8.46087         2.78926         2.02223
H          7.36824        39.39719         0.88668
H         10.83635         3.49980         3.05981
H          9.81629        39.40395         0.79450
H         13.39102         2.82065         2.48103
H         12.27886        39.42219         0.67381
H         15.84292         2.84405         2.74601
H         14.74359        39.42653         0.65264
H         18.29142         2.87787         3.06123
H         17.37851        38.63661         1.81218
H         20.44921         4.10356         2.98766
H         21.72038         6.17505         2.53659
H         21.79596         8.52518         1.83712
H         21.83168        10.33290         1.30347
H         21.87900        12.67066         0.67374
H         21.88185        14.52241         0.43285
H         21.91184        16.91271         0.01897
H         21.97047        18.76599        -0.52889
H         21.93363        21.19948        -0.79302
H         21.86841        23.21494        -1.29907
H         21.88959        25.46650        -0.44451
H         21.71600        27.34165         0.61532
H         21.86285        29.74710         0.13790
H         21.92127        31.61197        -0.85237
H         21.98002        33.97617        -0.23272
H         21.72084        35.86255        -0.77423
H         21.55505        38.32011        -1.02008
H         19.46391        39.50995        -0.31595
