         404
 CSIRO Nanostructure Databank - Neutral Graphene Oxide Data Set
C          1.35064         3.36837         0.87106
C          0.23682         4.08301         1.21774
C          1.17545         6.17938         0.36268
C          0.16700         5.49438         1.01079
C          1.15653         7.62200         0.19336
C         -0.02588         8.35646         0.37810
C          1.16568        10.48454         0.31861
C         -0.03009         9.75111         0.39643
C          1.16870        11.94742         0.41406
C         -0.03363        12.68452         0.38505
C          1.17840        14.80805         0.57080
C         -0.01557        14.06962         0.43568
C          1.07410        16.27096         0.40351
C          0.08365        16.90305        -0.38575
C          1.16206        19.10561        -0.14055
C          0.08885        18.28538        -0.56954
C          1.16578        20.56425        -0.30605
C          0.02728        21.28515        -0.74768
C          1.18964        23.42179        -0.46762
C          0.03465        22.66739        -0.80344
C          1.21751        24.86978        -0.51893
C          0.07724        25.62520        -0.89136
C          1.30388        27.72940        -0.65990
C          0.11677        27.00296        -0.95304
C          1.36298        29.17439        -0.81464
C          0.24519        29.91044        -1.28219
C          1.51848        31.98887        -1.27506
C          0.32030        31.27010        -1.51094
C          1.62447        33.40322        -1.58912
C          0.55129        34.18743        -1.99688
C          1.79888        36.29716        -1.81473
C          0.63570        35.59650        -2.10765
C          1.83465        37.73133        -1.70930
C          3.68117         3.34825         0.14173
C          2.48457         4.00730         0.24593
C          3.58239         6.20478        -0.59691
C          2.33048         5.42474        -0.16953
C          3.60127         7.65340        -0.30032
C          2.38520         8.33583        -0.02979
C          3.62717        10.46078         0.15285
C          2.38680         9.76481         0.13427
C          3.63600        11.87750         0.57527
C          2.38300        12.66281         0.56510
C          3.72246        14.75131         0.74766
C          2.41395        14.08316         0.70308
C          3.87868        16.10577         1.10685
C          2.02993        17.14723         0.94340
C          3.55356        19.12918         0.80047
C          2.23146        18.47040         0.53741
C          3.53787        20.60071         0.51872
C          2.31296        21.29616         0.04631
C          3.57577        23.44906         0.20693
C          2.35839        22.71169        -0.07936
C          3.57482        24.85243         0.20385
C          2.40774        25.57683        -0.17101
C          3.68720        27.71563         0.01436
C          2.45038        27.00999        -0.25454
C          3.73360        29.13549        -0.09693
C          2.56506        29.87470        -0.52998
C          3.84733        32.00788        -0.40753
C          2.63493        31.28604        -0.74777
C          4.01472        33.32640        -0.75248
C          2.95285        34.02478        -1.49183
C          4.20222        36.25751        -0.99897
C          3.04975        35.56000        -1.61068
C          4.18363        37.69804        -0.97658
C          2.97609        38.39590        -1.36192
C          6.18343         3.37514         0.04685
C          4.90792         3.98542        -0.35977
C          6.20349         6.21547        -0.80231
C          4.87737         5.44577        -0.74641
C          6.07834         7.67514        -0.42474
C          4.84421         8.35403        -0.29097
C          6.07625        10.51625        -0.21453
C          4.83986         9.78555        -0.07422
C          6.11090        11.94419        -0.13983
C          4.95709        12.63542         0.42039
C          6.13483        14.79582         0.16779
C          4.92189        14.09304         0.37887
C          6.14199        16.24213         0.26121
C          4.95478        16.92708         0.68993
C          6.03934        19.07049         0.33351
C          4.86794        18.37051         0.64770
C          6.06318        20.53212         0.08316
C          4.79193        21.29972         0.12881
C          6.06666        23.42699         0.34933
C          4.82202        22.75376         0.31264
C          6.09015        24.83798         0.47031
C          4.79356        25.56448         0.73156
C          6.09194        27.69617         0.54384
C          4.85981        27.01968         0.37112
C          6.11571        29.12101         0.55490
C          4.92175        29.81232         0.26992
C          6.11924        31.97776         0.83652
C          4.88199        31.28097         0.37335
C          6.32623        33.37956         0.35447
C          5.27771        34.06304        -0.47110
C          6.45157        36.25252        -0.02150
C          5.29331        35.54991        -0.50624
C          6.48547        37.69362        -0.13356
C          5.32292        38.38737        -0.58290
C          8.57376         3.52116         0.63655
C          7.32204         4.15722         0.28070
C          8.41977         6.37509         0.42166
C          7.28817         5.55855         0.03434
C          8.51189         7.76840         0.00003
C          7.30261         8.40499        -0.29849
C          8.53936        10.54274        -0.58488
C          7.29195         9.83644        -0.35716
C          8.37666        11.92376        -1.20039
C          7.25985        12.67592        -0.47960
C          8.58159        14.76894        -0.37544
C          7.30037        14.06245        -0.22923
C          8.56904        16.27117        -0.27867
C          7.30623        16.98452        -0.00852
C          8.48292        19.16289        -0.09566
C          7.28423        18.40196         0.07690
C          8.54043        20.56569         0.05707
C          7.32429        21.28960         0.19180
C          8.55652        23.41364         0.29903
C          7.31344        22.69324         0.26810
C          8.55811        24.82070         0.45883
C          7.31400        25.53645         0.53673
C          8.55037        27.65616         0.87630
C          7.32272        26.96146         0.66919
C          8.53991        29.04591         1.12794
C          7.34325        29.81188         0.95024
C          8.43661        31.89025         1.91612
C          7.34669        31.19988         1.11818
C          8.54580        33.42348         1.64450
C          7.38272        34.18598         1.02727
C          8.69954        36.28387         1.02393
C          7.53491        35.58910         0.59306
C          8.76988        37.72177         0.79428
C          7.63511        38.38821         0.25167
C         11.03392         3.56552         0.86096
C          9.76431         4.21637         0.78537
C         10.97540         6.47450         0.74176
C          9.72555         5.69411         0.85539
C         11.01112         7.83082         0.48123
C          9.70358         8.60357         0.40120
C         11.03385        10.49553        -0.77633
C          9.73335         9.90133        -0.38540
C         11.05451        11.92951        -1.25431
C          9.70147        12.68347        -1.37568
C         10.68403        14.95918        -1.64367
C          9.66691        14.15574        -1.18164
C         10.95933        16.31999        -1.19727
C          9.69173        17.04226        -0.88377
C         11.00194        19.13483        -0.36341
C          9.68554        18.50184        -0.63290
C         11.01792        20.60226        -0.23932
C          9.79286        21.28709        -0.02979
C         11.03233        23.40780         0.16588
C          9.79471        22.70176         0.14623
C         11.03140        24.82748         0.38709
C          9.79771        25.54023         0.54484
C         11.04779        27.65932         0.86840
C          9.80454        26.93466         0.80906
C         11.05870        29.04666         1.15299
C          9.78619        29.62817         1.75895
C         11.06186        31.92592         1.68474
C          9.78898        31.16414         1.87890
C         11.05748        33.40864         1.55324
C          9.85062        34.12208         1.56851
C         11.04693        36.28192         1.86771
C          9.83227        35.55875         1.47123
C         11.09603        37.82337         1.66359
C          9.94193        38.43597         1.03510
C         13.48415         3.61423         1.01068
C         12.22941         4.26793         1.02566
C         13.46365         6.53412         1.26333
C         12.18703         5.74959         1.16395
C         13.47530         7.93762         0.78447
C         12.26587         8.55443         0.45215
C         13.51850        10.71647        -0.10911
C         12.30508         9.87515        -0.24577
C         13.53793        12.02958        -0.52380
C         12.35225        12.65057        -1.12076
C         13.66895        14.76053        -1.55616
C         12.51795        13.87740        -1.71349
C         13.50318        16.30980        -1.43751
C         12.18598        16.95674        -1.17312
C         13.51348        19.15239        -0.71159
C         12.26526        18.35500        -0.61223
C         13.49408        20.54992        -0.49157
C         12.25238        21.27759        -0.26882
C         13.50050        23.37749        -0.00181
C         12.25898        22.68985        -0.04517
C         13.51194        24.78590         0.41193
C         12.25399        25.54738         0.46401
C         13.51959        27.68813         0.55108
C         12.27876        26.94733         0.64057
C         13.51686        29.10777         0.74794
C         12.28103        29.79890         1.10977
C         13.54631        31.95426         1.35994
C         12.29056        31.18931         1.32182
C         13.53068        33.43532         1.29857
C         12.31534        34.09672         1.50000
C         13.63958        36.29431         1.63930
C         12.33984        35.53410         1.84645
C         13.58610        37.77230         1.51543
C         12.40995        38.47077         1.52207
C         15.93683         3.62342         0.89902
C         14.71623         4.29509         1.07955
C         16.01709         6.50308         1.01273
C         14.74735         5.76210         1.30104
C         15.96165         7.94696         0.67738
C         14.73966         8.61880         0.62434
C         16.02198        10.75006         0.14533
C         14.72024        10.13019         0.59466
C         16.02527        12.12622        -0.22046
C         14.79562        12.78832        -0.52923
C         16.06540        14.86229        -0.96517
C         14.86421        14.12277        -0.98341
C         16.00994        16.31022        -1.27340
C         14.74100        17.04728        -1.07980
C         15.99573        19.17483        -0.79806
C         14.74653        18.43626        -0.88826
C         15.96079        20.59547        -0.66091
C         14.72530        21.29386        -0.50974
C         15.92237        23.49299        -0.46873
C         14.71520        22.71629        -0.28036
C         15.96604        24.87769        -0.34026
C         14.81098        25.57096         0.24845
C         15.92289        27.75932        -0.04332
C         14.72826        27.03608         0.21270
C         15.91679        29.16722         0.17005
C         14.72796        29.81235         0.60475
C         15.96025        32.03089         0.50461
C         14.82126        31.23009         0.99945
C         15.87495        33.44049         0.48041
C         14.74004        34.15271         0.95846
C         15.91585        36.34730         0.62231
C         14.78274        35.59301         1.02025
C         16.00864        37.75410         1.06181
C         14.86168        38.42502         1.43785
C         18.37951         3.58123         0.46496
C         17.16709         4.30593         0.70233
C         18.40652         6.41591         0.37623
C         17.21305         5.72629         0.65410
C         18.42266         7.86037         0.31797
C         17.21330         8.60625         0.42485
C         18.48161        10.70264        -0.00528
C         17.22582        10.02712         0.19062
C         18.50047        12.11699        -0.19162
C         17.26725        12.82330        -0.35883
C         18.53333        14.95078        -0.61727
C         17.28395        14.21794        -0.65884
C         18.54320        16.35938        -0.75397
C         17.31511        17.08339        -1.12123
C         18.46715        19.23788        -0.68080
C         17.24241        18.52372        -0.84100
C         18.42941        20.66903        -0.63749
C         17.19832        21.31228        -0.67043
C         18.39936        23.54248        -1.10505
C         17.12674        22.76949        -0.90737
C         18.33813        25.01058        -0.99297
C         17.15222        25.65758        -0.66276
C         18.32159        27.85728        -0.55841
C         17.12917        27.10067        -0.46177
C         18.34945        29.22207        -0.18228
C         17.14475        29.90199         0.07725
C         18.32678        32.06155        -0.24017
C         17.13129        31.34280         0.12958
C         18.20218        33.48582        -0.60729
C         16.85875        34.19275        -0.37848
C         18.11891        36.32273        -0.51694
C         17.00911        35.65739        -0.00339
C         18.31840        38.33291         0.38124
C         17.27319        38.46919         1.24856
C         19.55750         4.24116         0.21658
C         20.81642         6.36436        -0.05700
C         19.60803         5.66845         0.16926
C         20.84086         7.74983        -0.08167
C         19.66709         8.52340         0.09334
C         20.91925        10.68689        -0.06487
C         19.70021         9.97015         0.01542
C         20.94079        12.06586        -0.16641
C         19.74409        12.81690        -0.24900
C         20.95026        15.01231        -0.26293
C         19.75333        14.25550        -0.37689
C         20.94637        16.38795        -0.35465
C         19.74152        17.10475        -0.60007
C         20.92281        19.31110        -0.83228
C         19.71158        18.54148        -0.68607
C         20.93030        20.66608        -0.79437
C         19.71115        21.44700        -0.38388
C         20.85680        23.64196        -0.99598
C         19.69471        22.87249        -0.89524
C         20.82745        24.99589        -1.31816
C         19.56959        25.73800        -1.33360
C         20.81086        28.02570        -0.99796
C         19.54971        27.26838        -1.13159
C         20.85509        29.25724        -0.47544
C         19.64822        29.95226         0.09480
C         20.76325        32.20473        -0.38661
C         19.56169        31.42582        -0.28224
C         20.75042        33.55971        -0.53646
C         19.50159        34.27982        -0.79611
C         20.56691        36.55825        -0.59446
C         19.43180        35.76308        -0.66980
C         20.68546        37.89683        -0.08585
C         19.71255        38.67654         0.49417
O         16.78575        16.71909        -2.44877
O          9.03465        15.45171         0.85593
O          3.52723        20.10969         1.90297
O         11.68560        18.44489         0.75197
O          7.53488        34.09173         2.46651
O          5.00148        31.78567         1.76627
O         10.39433        12.15298        -2.54045
O         10.57038        31.54163         3.06514
O         17.99909        37.67765        -0.82914
O         12.66267         6.27335         2.46284
O          4.50166        12.10654         1.72766
O         11.55519        14.39606        -2.58521
O          5.32027        20.86278        -1.17839
O         13.23955        35.80141         2.96414
O         10.85859        37.19696         2.97437
O         18.73384        33.76133        -1.94623
O         17.59661        23.06640        -2.28011
O          9.38425        17.96571        -1.98525
O         14.48547        31.46592         2.40809
O          3.41892        34.67687        -2.71900
O          2.90318        16.66442         1.92748
O         11.86075         9.65123        -1.65377
O         13.78616        15.63958        -2.71389
O         15.59804         6.20365         2.40914
O         14.40505        25.02759         1.55469
O          6.47336        33.44145        -1.10279
O          2.58914         5.77107        -1.56843
O          8.81971         6.22010         1.85644
O         19.38187        26.68564        -2.45347
O          4.82884         4.43078        -1.79783
O          9.76895        29.10881         3.12410
H         10.33755        29.71228         3.65725
O         19.82352        29.91564         1.55254
H         19.01152        30.28591         1.95980
O         19.79329        21.58378         1.09092
H         19.88248        20.67967         1.46151
O         16.19892        34.24463        -1.68853
H         16.92043        34.32416        -2.35721
O          9.45717         9.00971         1.79757
H          9.29329         8.17669         2.30171
O          7.97614        31.75490         3.27934
H          8.74461        31.94720         3.86237
O          7.84867        11.72787        -2.54056
H          8.62216        11.53909        -3.12183
O          6.67195         6.19995        -2.18514
H          6.24952         5.41405        -2.60800
O         14.56204        10.53197         2.01200
H         15.20496        10.01246         2.54092
O          4.63899        25.54837         2.20806
H          4.59540        24.60861         2.48719
H          1.41604         2.29347         1.09299
H         -0.60707         3.58099         1.71071
H         -0.70988         6.03209         1.39709
H         -0.98004         7.82780         0.50822
H         -0.99044        10.26549         0.53199
H         -1.00010        12.17420         0.28473
H         -0.96968        14.61066         0.37024
H         -0.71469        16.30881        -0.85190
H         -0.74009        18.73695        -1.13138
H         -0.88933        20.74654        -1.02440
H         -0.88223        23.18123        -1.12204
H         -0.86262        25.11560        -1.14196
H         -0.79591        27.53527        -1.25028
H         -0.70315        29.40012        -1.49400
H         -0.56406        31.79113        -1.90093
H         -0.43603        33.72842        -2.14408
H         -0.28273        36.15905        -2.33054
H          0.91812        38.29292        -1.94289
H          3.76002         2.31859         0.52343
H          2.98311        39.49482        -1.32439
H          6.21443         2.29216         0.23571
H          5.33006        39.48722        -0.59485
H          8.59297         2.42119         0.66293
H          7.66255        39.48336         0.15374
H         11.06579         2.46949         0.76847
H         10.03293        39.46495         0.65565
H         13.49883         2.52194         0.87498
H         12.43055        39.56196         1.37878
H         15.92946         2.52557         0.82095
H         14.91713        39.49626         1.68022
H         18.35494         2.48237         0.49621
H         17.36440        39.11137         2.13701
H         20.48552         3.67451         0.05186
H         21.74520         5.79673        -0.21194
H         21.80046         8.25063        -0.26654
H         21.87680        10.15108        -0.02655
H         21.91367        12.57289        -0.21271
H         21.90298        14.50263        -0.06669
H         21.88982        16.93422        -0.22082
H         21.86065        18.77894        -1.04768
H         21.87780        21.20048        -0.94974
H         21.83890        23.16575        -0.86393
H         21.76691        25.52489        -1.52414
H         21.72458        27.57442        -1.41094
H         21.82518        29.76953        -0.40461
H         21.72955        31.70678        -0.22897
H         21.68915        34.12293        -0.44594
H         21.53370        36.06734        -0.78546
H         21.72266        38.25689         0.00139
H         20.00973        39.56378         1.07286
