         404
 CSIRO Nanostructure Databank - Neutral Graphene Oxide Data Set
C          1.66129         3.17998         3.31611
C          1.51523         4.26825         2.44237
C          2.88688         2.55291         3.45688
C          2.60573         4.75931         1.70390
C          1.18575         6.33493         0.41327
C          1.03734         7.35258        -0.51494
C          2.46901         5.87931         0.78125
C          2.18373         8.01103        -0.98474
C          1.13516        11.15274        -1.85813
C          1.14328        12.48295        -1.57136
C          2.24781        10.28349        -1.59199
C          2.33225        13.08938        -0.97318
C          1.44999        15.49537        -0.93684
C          1.47371        16.84127        -0.45556
C          2.51195        14.58348        -1.03858
C          2.56572        17.52682         0.08298
C          2.51591        18.65598         1.00174
C          4.01782         3.01867         2.73129
C          3.88162         4.15192         1.86102
C          5.26304         2.36875         2.85481
C          5.01807         4.64467         1.14061
C          3.62659         6.48779         0.21191
C          3.47510         7.65718        -0.58670
C          4.92081         5.83397         0.33411
C          4.66587         8.41686        -1.09036
C          3.49326        10.72278        -1.13023
C          3.55053        12.18279        -0.80678
C          4.69826         9.92898        -0.98827
C          4.91215        12.81475        -0.99845
C          3.85429        15.02163        -0.96504
C          3.89024        17.00587        -0.10257
C          4.94861        14.24862        -0.55393
C          4.85376        17.00294         0.86611
C          3.57416        18.94424         1.79905
C          4.79248        18.05387         1.95981
C          6.38576         2.81009         2.12660
C          6.25733         3.96413         1.26925
C          7.62551         2.14032         2.22588
C          7.38594         4.41328         0.53344
C          6.03079         6.29090        -0.41494
C          5.95875         7.65178        -1.08018
C          7.24614         5.53111        -0.35715
C          7.20063         8.48071        -1.03188
C          5.93686        10.56569        -0.66303
C          6.05104        11.98232        -0.50820
C          7.19070         9.83105        -0.63960
C          7.25643        12.63475        -0.17533
C          6.08125        14.81467         0.06634
C          6.00567        16.08676         0.82890
C          7.27328        14.04087         0.15804
C          7.32239        16.71749         1.29396
C          6.12231        18.80820         1.89810
C          7.30584        18.17426         1.59700
C          8.76233         2.58398         1.51309
C          8.63904         3.73765         0.65858
C         10.01356         1.93715         1.65011
C          9.80453         4.22755        -0.00039
C          8.41647         5.86224        -1.10387
C          8.41375         7.91063        -1.42481
C          9.71011         5.43018        -0.79031
C          9.67953         8.42353        -1.06416
C          8.45478        10.48177        -0.43971
C          8.49479        11.89669        -0.12954
C          9.66343         9.74935        -0.56667
C          9.70896        12.58020         0.03985
C          8.51395        14.68964         0.47685
C          8.55270        16.05985         0.85909
C          9.74234        13.99069         0.28326
C          9.77178        16.76099         0.94510
C          8.57127        18.85381         1.53013
C          9.76618        18.19534         1.24496
C         11.16180         2.40039         0.96563
C         11.03397         3.55601         0.12886
C         12.41690         1.74366         1.04964
C         12.19575         4.02329        -0.61535
C         10.88696         6.22307        -1.09608
C         10.89999         7.62876        -1.12860
C         12.15783         5.49235        -1.20308
C         12.17186         8.34750        -1.13461
C         10.96392        10.37168        -0.28041
C         10.99334        11.85374         0.01843
C         12.16096         9.71337        -0.84383
C         12.23388        12.62207        -0.25389
C         10.97970        14.69461         0.39795
C         10.97906        16.06919         0.72578
C         12.22790        14.03627         0.04296
C         12.27169        16.76067         1.05413
C         10.99974        18.91173         1.14857
C         12.22053        18.26841         0.93645
C         13.57854         2.23971         0.39726
C         13.49205         3.42227        -0.37421
C         14.83507         1.56218         0.52969
C         14.65264         4.01472        -1.05803
C         13.45409         6.20090        -1.25765
C         13.44152         7.65317        -1.29020
C         14.63850         5.48501        -1.29202
C         14.66684         8.34869        -1.28423
C         13.33262        10.53960        -1.09614
C         13.36173        11.96057        -0.70435
C         14.67555         9.81675        -1.36401
C         14.60693        12.68839        -1.01116
C         13.40958        14.78341        -0.05448
C         13.46394        16.15198         0.36424
C         14.61242        14.17997        -0.65959
C         14.64293        16.88230         0.32914
C         13.43095        18.97519         0.77074
C         14.66448        18.31886         0.52772
C         16.01099         2.06097        -0.02204
C         15.98543         3.28673        -0.86075
C         17.26245         1.43439         0.20032
C         17.25396         4.03244        -0.98956
C         15.91784         6.20342        -1.51673
C         15.93467         7.67249        -1.30319
C         17.24573         5.44806        -1.43786
C         17.14786         8.37281        -1.17596
C         15.92458        10.55354        -1.10425
C         15.90159        11.95962        -0.99290
C         17.14867         9.82788        -1.01545
C         17.11233        12.68329        -0.83317
C         15.90466        14.80805        -0.40787
C         15.91237        16.16939         0.12625
C         17.10826        14.11395        -0.62133
C         17.17715        16.98019         0.00134
C         15.86900        19.05310         0.35650
C         17.11070        18.45892         0.04655
C         18.47425         2.03232        -0.19062
C         18.43587         3.39274        -0.71465
C         19.71000         1.37454         0.03158
C         19.70944         4.08159        -1.02357
C         18.47292         6.24041        -1.19620
C         18.41728         7.65859        -1.15341
C         19.70269         5.56307        -1.04172
C         19.63864         8.36255        -0.97559
C         18.34445        10.54832        -0.80946
C         18.35759        11.97903        -0.76326
C         19.60072         9.79376        -0.62839
C         19.57951        12.72343        -0.68946
C         18.34965        14.82633        -0.63539
C         18.32690        16.30888        -0.65886
C         19.56516        14.13676        -0.73102
C         19.59823        17.11473        -0.72480
C         18.31499        19.17528        -0.09384
C         19.57002        18.54240        -0.31628
C         20.96222         1.98535        -0.18497
C         20.99804         3.35417        -0.75165
C         22.18026         1.36636         0.11321
C         22.22348         4.14942        -0.57101
C         20.92341         6.26625        -0.94823
C         20.88476         7.69605        -0.92435
C         22.18128         5.54818        -0.77075
C         22.12164         8.45801        -0.92612
C         20.89936        10.54066        -0.44248
C         20.87787        12.05722        -0.28568
C         22.15110         9.84237        -0.80785
C         22.11974        12.77535        -0.76663
C         20.83003        14.90941        -1.07761
C         20.86936        16.37865        -0.67673
C         22.08818        14.14699        -0.76481
C         22.02774        17.08738        -0.50044
C         20.78937        19.21968        -0.23092
C         22.04225        18.54076        -0.36292
C         23.43030         2.05514         0.00813
C         23.43420         3.48120        -0.27041
C         24.64543         1.39589         0.22544
C         24.65683         4.20641        -0.23158
C         23.40436         6.26177        -0.76890
C         23.37531         7.69473        -1.11158
C         24.63294         5.61319        -0.51647
C         24.67569         8.46001        -1.05403
C         23.39243        10.60364        -0.90709
C         23.38248        12.06680        -0.84614
C         24.59724         9.92349        -0.95844
C         24.57062        12.79971        -0.94099
C         23.32843        14.88869        -0.49683
C         23.32066        16.38587        -0.34569
C         24.60531        14.22490        -0.75284
C         24.58058        17.11905        -0.52038
C         23.26845        19.21405        -0.33429
C         24.54389        18.55238        -0.44730
C         25.89074         2.09231         0.22369
C         25.88548         3.51533         0.04111
C         27.12197         1.42579         0.42620
C         27.11208         4.22881         0.16321
C         25.85365         6.37796        -0.40728
C         25.89835         7.75730        -0.60097
C         27.04387         5.70545         0.13538
C         27.12614         8.50029        -0.48651
C         25.88261        10.63262        -1.01159
C         25.86901        12.11555        -1.05069
C         27.07333         9.99262        -0.34170
C         27.06661        12.84086        -0.46962
C         25.77922        14.97653        -0.75859
C         25.79069        16.41499        -0.64821
C         27.06067        14.26668        -0.95778
C         27.04393        17.13714        -0.62093
C         25.76203        19.24705        -0.39318
C         27.01729        18.56619        -0.42760
C         28.35313         2.12460         0.45461
C         28.32625         3.55875         0.35487
C         29.60089         1.45837         0.62977
C         29.61708         4.27993         0.40718
C         28.34028         6.49210         0.15959
C         28.34918         7.86870        -0.33220
C         29.63609         5.76485         0.25272
C         29.61086         8.56956        -0.50812
C         28.36512        10.71348        -0.64292
C         28.36030        12.10448        -0.70979
C         29.58787         9.98923        -0.68769
C         29.58781        12.83088        -0.75620
C         28.34588        15.02399        -0.94308
C         28.29234        16.47345        -0.68749
C         29.60089        14.28447        -0.69430
C         29.50857        17.15383        -0.44560
C         28.23565        19.25319        -0.23999
C         29.47890        18.57234        -0.19809
C         30.85381         2.12757         0.54967
C         30.88350         3.53355         0.22708
C         32.08213         1.47917         0.78688
C         32.07924         4.20871         0.00418
C         30.81160         6.40504        -0.41628
C         30.83432         7.88647        -0.51795
C         32.06657         5.60684        -0.52124
C         32.07601         8.57612        -0.71779
C         30.81513        10.69289        -0.82627
C         30.79275        12.11484        -0.81363
C         32.05236         9.97844        -0.87885
C         32.06969        12.81521        -0.59961
C         30.76656        14.99737        -0.50633
C         30.75694        16.44166        -0.41143
C         32.05243        14.28914        -0.37475
C         31.96507        17.11603        -0.14687
C         30.68978        19.22126         0.13783
C         31.91472        18.51657         0.20337
C         33.30877         2.19122         0.73527
C         33.33029         3.55815         0.27211
C         34.52271         1.59349         1.13454
C         34.55557         4.25539         0.18876
C         33.35211         6.36583        -0.66705
C         33.33983         7.85883        -0.65331
C         34.61825         5.64420        -0.33681
C         34.55259         8.54286        -0.61534
C         33.30304        10.70466        -1.18431
C         33.31506        12.23041        -1.22110
C         34.60231         9.97312        -0.98684
C         34.57132        12.89019        -0.67417
C         33.32317        15.03237        -0.48198
C         33.24879        16.43305        -0.19229
C         34.53959        14.30433        -0.51649
C         34.40805        17.11423         0.21562
C         33.07953        19.12770         0.72134
C         34.29467        18.41098         0.81862
C         35.73836         2.30177         1.09159
C         35.76623         3.65551         0.60240
C         36.95291         1.68062         1.49571
C         37.02738         4.33809         0.45324
C         35.80719         6.47097         0.11149
C         35.81899         7.86228        -0.46669
C         37.10476         5.70684         0.00433
C         37.01622         8.52618        -0.64621
C         35.83877        10.74056        -0.72656
C         35.79897        12.17207        -0.58695
C         37.03841         9.98687        -0.64198
C         37.02730        12.89569        -0.35257
C         35.81765        15.02835        -0.36996
C         35.73792        16.49750         0.07645
C         37.07470        14.28804        -0.13302
C         36.86685        16.99138         0.88010
C         35.38762        18.88950         1.56683
C         36.58922        18.14583         1.70208
C         38.17568         2.31195         1.30207
C         38.22043         3.63261         0.72421
C         39.41339         1.64548         1.61539
C         39.46576         4.20205         0.33058
C         38.30254         6.29975        -0.38664
C         38.26555         7.72594        -1.01878
C         39.49375         5.46219        -0.35747
C         39.53396         8.56467        -0.85687
C         38.27099        10.66838        -0.50106
C         38.26983        12.13844        -0.53779
C         39.51068         9.96195        -0.54068
C         39.57839        12.89507        -0.26855
C         38.27786        15.01787         0.23432
C         38.12680        16.35542         0.86790
C         39.51647        14.30618         0.18661
C         39.16786        17.01651         1.65963
C         37.52388        18.54599         2.66686
C         38.81696        17.99732         2.65230
C         40.60393         2.18649         1.23509
C         40.65960         3.43279         0.51400
C         41.86542         3.85407        -0.06584
C         40.71563         5.75296        -1.01922
C         40.75479         8.05115        -1.28604
C         41.87267         4.98303        -0.88355
C         41.97728         8.74040        -1.17034
C         40.74638        10.67176        -0.37415
C         40.76250        12.06514         0.00945
C         41.97203        10.02028        -0.64953
C         41.90967        12.67536         0.50677
C         40.81476        14.84709         0.41516
C         40.56559        16.87444         1.47287
C         41.95529        14.07365         0.61828
C         41.52950        17.45515         2.29261
C         39.79442        18.54056         3.53959
C         41.13399        18.25735         3.37934
O         12.02362         4.33132        -2.04410
O         32.16398        13.31586         0.76971
O         29.83851         5.20773         1.57856
O         39.08116        12.69001        -1.63350
O         23.30228        15.52301         0.85552
O         36.03145        16.13067        -1.30976
O          4.13506        16.34692        -1.31613
O          5.20101         7.80767        -2.32703
O         20.22031         9.94480         0.72494
O          6.53686        15.88269         2.20002
O         16.85261        16.34551         1.27563
O         11.14265        10.86094         1.10362
O         13.87625        10.35323        -2.45553
O         34.22746         5.80834        -1.72325
O         14.45307        13.70623        -2.04839
O         27.52774         6.34728         1.36960
O         24.12914         7.98199        -2.34093
O         40.79419         6.80644        -1.93753
O         27.71266        14.56459        -2.21807
O         41.04453        16.21946         0.33907
O          2.76481        12.57085         0.35086
O         18.76449        16.87106        -1.94215
O         31.16660         5.74607        -1.68416
O         26.14016        11.34613        -2.26362
O         20.45335         3.45281        -2.12290
O          8.31772         6.74160        -2.18923
O         16.62304         5.74014        -2.72592
O         34.02420        10.17447        -2.34615
O         15.23824         3.17007        -2.10997
O          1.97554         8.97871        -1.96970
O         20.79301        14.96750        -2.55144
H         20.04658        15.57200        -2.78626
O         33.24308        12.62176        -2.61861
H         33.76527        11.95527        -3.12484
O          4.66682        17.46073         3.27614
H          5.37384        16.77187         3.33654
O         38.11022         7.48828        -2.44675
H         38.95340         7.09442        -2.76764
O          5.05986        12.85945        -2.46771
H          5.97615        13.14400        -2.67096
O         26.87716        12.93696         0.96652
H         26.81725        12.01447         1.32300
O         12.49621        16.48642         2.48584
H         13.33833        16.92289         2.73775
O         20.94274        12.31946         1.15682
H         20.49785        11.55847         1.60134
O         26.80870        10.18676         1.10404
H         27.42671         9.61126         1.60557
O         35.57473         6.68089         1.54792
H         36.37630         7.09703         1.92918
H          0.79083         2.82355         3.88420
H          0.52750         4.74004         2.35819
H          3.00011         1.69071         4.12924
H          0.28853         5.84296         0.80931
H          0.04594         7.65720        -0.87274
H          0.25229        10.69539        -2.32575
H          0.29956        13.12109        -1.86999
H          0.43581        15.08142        -1.06093
H          0.48095        17.29317        -0.29871
H          1.60407        19.27142         1.04398
H          5.35475         1.49462         3.51604
H          3.50452        19.79643         2.49217
H          7.71009         1.26429         2.88540
H          6.13465        19.88097         2.14620
H         10.09414         1.05750         2.30479
H          8.59282        19.93497         1.73426
H         12.49829         0.82400         1.64663
H         10.97533        20.01029         1.22109
H         14.87339         0.64278         1.13152
H         13.41207        20.07555         0.79699
H         17.28370         0.46247         0.71495
H         15.82226        20.14864         0.45055
H         19.68663         0.35413         0.44323
H         18.30120        20.26457         0.06377
H         22.18236         0.32250         0.46191
H         20.79188        20.30002        -0.02117
H         24.64335         0.31214         0.41555
H         23.26510        20.31003        -0.23048
H         27.12338         0.33257         0.55141
H         25.75636        20.34041        -0.26799
H         29.59579         0.37280         0.81055
H         28.21849        20.34144        -0.07761
H         32.09054         0.41828         1.07831
H         30.67504        20.28992         0.39917
H         34.52025         0.55274         1.49112
H         33.02797        20.15569         1.10884
H         36.92301         0.66079         1.90689
H         35.28522        19.82761         2.13140
H         39.37480         0.67101         2.12301
H         37.27887        19.35543         3.36897
H         41.54727         1.65540         1.42880
H         42.77712         3.25524         0.06669
H         42.77811         5.27909        -1.42848
H         42.90671         8.26118        -1.50233
H         42.91919        10.56647        -0.55352
H         42.81000        12.08904         0.73260
H         42.90349        14.57879         0.84135
H         42.59163        17.30178         2.06361
H         39.46012        19.24248         4.31623
H         41.88741        18.69772         4.04599
