         671
 CSIRO Nanostructure Databank - Neutral Graphene Oxide Data Set
C          5.80903        31.83696         0.05103
C          5.90442        33.13509         0.39972
C          8.17454        27.43734        -0.18042
C          8.18786        28.94979        -0.28729
C          7.04876        29.66338        -0.17835
C          8.21481        31.86051        -0.67471
C          6.90908        31.09576        -0.66147
C          8.25813        33.20250        -0.39367
C          7.11344        33.91168         0.16140
C          8.41112        36.02966         0.33840
C          7.19224        35.24952         0.46825
C          8.44062        37.36021         0.66587
C         10.86608        23.30319         0.62139
C         10.78394        24.71748         0.55825
C          9.57528        25.39592         0.44699
C         10.74946        27.67533         0.24978
C          9.47361        26.86128         0.36568
C         10.73948        28.97533        -0.45535
C          9.44621        29.59242        -0.76187
C         10.73695        31.77948        -1.01762
C          9.43325        31.11094        -1.05303
C         10.75190        33.24392        -1.05652
C          9.46011        34.00324        -0.71611
C         10.83203        36.00121        -0.20150
C          9.60247        35.36281        -0.18360
C         10.94882        37.36080         0.38699
C          9.69963        38.19094         0.72432
C         10.89161        40.31544         0.00083
C          9.65850        39.45005        -0.18714
C         10.88360        41.68015        -0.06724
C         13.41108        19.06634         1.09598
C         13.38038        20.49907         0.94613
C         12.15416        21.19872         0.91927
C         13.34047        23.31255         0.60263
C         12.11054        22.60309         0.72068
C         13.31350        24.74927         0.15196
C         12.06028        25.48061         0.60110
C         13.29094        27.59409        -0.18103
C         12.06622        26.96723         0.38170
C         13.21730        28.93862        -0.62337
C         11.93951        29.63971        -0.69923
C         13.19476        31.77375        -1.03525
C         11.93323        31.06620        -0.96392
C         13.22686        33.19333        -1.03630
C         12.02237        33.94921        -0.89121
C         13.29535        36.04117        -0.74763
C         12.04184        35.32521        -0.61813
C         13.35147        37.43108        -0.52744
C         12.22574        38.11161         0.14938
C         13.43401        40.34475        -0.25891
C         12.19081        39.61244         0.17064
C         13.25841        41.73209        -0.88736
C         12.11181        42.45299        -0.20882
C         13.42457        44.55725        -0.19601
C         12.22629        43.78762         0.08101
C         13.36142        46.03747         0.13390
C         15.96916        14.87300         1.68196
C         15.93829        16.27642         1.58175
C         14.69338        16.97380         1.49794
C         15.86321        19.15040         1.31011
C         14.60832        18.35715         1.26210
C         15.86632        20.46365         0.55961
C         14.59666        21.23458         0.80543
C         15.82420        23.37522         0.48118
C         14.57834        22.63894         0.66380
C         15.83001        24.72629         0.19235
C         14.58876        25.52924         0.51332
C         15.72152        27.48201        -0.59841
C         14.54421        26.90401        -0.12713
C         15.64533        28.81462        -1.31377
C         14.40983        29.61816        -0.97929
C         15.66090        31.74003        -1.19811
C         14.41494        31.03065        -1.08968
C         15.66509        33.13675        -1.31345
C         14.46234        33.89626        -1.19534
C         15.67431        36.06578        -1.41068
C         14.47001        35.32575        -1.16782
C         15.69548        37.44501        -1.27164
C         14.53066        38.17456        -0.84589
C         15.63719        40.34973        -1.50795
C         14.58372        39.58070        -0.73372
C         15.71575        41.84496        -1.23600
C         14.56927        42.50579        -0.90749
C         15.68986        44.74069        -1.24527
C         14.53932        43.94577        -0.73512
C         15.70667        46.20892        -0.95686
C         14.58439        46.86050        -0.22556
C         15.74848        49.03242        -0.63185
C         14.60347        48.19904        -0.05294
C         15.78096        50.44985        -0.14279
C         18.36518        10.52825         1.98014
C         18.02827        11.77983         1.45406
C         17.06859        12.71866         1.85688
C         18.40475        14.83855         1.32067
C         17.16047        14.12183         1.56214
C         18.39025        16.26720         1.31477
C         17.19360        16.96929         1.47212
C         18.40873        19.17880         1.15799
C         17.17900        18.44196         1.45481
C         18.37128        20.57094         0.91844
C         17.13350        21.23598         0.76667
C         18.34194        23.35590         0.28494
C         17.11520        22.72343         0.88383
C         18.29274        24.70459        -0.12513
C         17.04553        25.42093        -0.12242
C         18.21147        27.43631        -0.86950
C         16.99284        26.78810        -0.52513
C         18.21007        28.83761        -1.42813
C         16.92424        29.60559        -1.19030
C         18.17539        31.71295        -1.01846
C         16.90285        30.97041        -1.17771
C         18.19498        33.19245        -1.21684
C         16.92368        33.85561        -1.61354
C         18.23344        36.06341        -1.58650
C         16.93372        35.35007        -1.72137
C         18.24004        37.45860        -1.49783
C         16.97900        38.17721        -1.25553
C         18.25200        40.39985        -1.42828
C         16.97134        39.67173        -1.29236
C         18.24390        41.80705        -1.36823
C         16.96814        42.52327        -1.79872
C         18.21467        44.65454        -0.85002
C         17.04157        44.09692        -1.66751
C         18.20628        46.02953        -0.49871
C         17.07293        46.91312        -0.99448
C         18.08507        48.83062         0.29200
C         17.02390        48.27885        -0.35450
C         18.15226        50.26981         0.51877
C         16.94587        51.06867         0.27645
C         18.19417        53.17084         0.69943
C         16.98783        52.48569         0.44286
C         18.26733        54.56054         0.75209
C         20.98260         6.29299         1.96442
C         20.90758         7.73770         2.14281
C         19.68064         8.51185         1.97800
C         20.90071        10.65354         1.61960
C         19.65839         9.90321         1.80527
C         20.97550        12.04829         1.46498
C         19.84116        12.84868         1.09125
C         20.89998        14.95590         1.86098
C         19.69449        14.19973         1.33494
C         20.96318        16.36031         1.33404
C         19.66104        17.02997         0.94038
C         20.93500        19.19325         1.14606
C         19.67328        18.45281         1.49892
C         20.89352        20.68713         1.27714
C         19.60814        21.31124         0.81171
C         20.81342        23.35017         0.09439
C         19.58214        22.66131         0.39351
C         20.75971        24.68605        -0.37972
C         19.50971        25.37634        -0.47169
C         20.70388        27.48696        -0.94720
C         19.45039        26.75790        -0.82392
C         20.70424        28.88792        -0.91089
C         19.46978        29.60089        -1.06673
C         20.69366        31.74534        -1.24134
C         19.44571        30.97691        -1.08286
C         20.66780        33.21967        -1.29763
C         19.47421        33.90955        -1.42902
C         20.69805        36.04743        -1.47732
C         19.45660        35.33578        -1.55698
C         20.66213        37.47457        -1.45383
C         19.46236        38.19309        -1.45058
C         20.66085        40.37144        -1.15356
C         19.45416        39.65968        -1.34554
C         20.64059        41.75454        -0.91588
C         19.43645        42.48951        -1.04350
C         20.60581        44.57363        -0.30900
C         19.41384        43.91766        -0.74112
C         20.53077        45.89289         0.20189
C         19.32592        46.62093         0.12386
C         20.52056        48.72221         0.92647
C         19.20914        47.97062         0.82098
C         20.58067        50.10748         0.98948
C         19.35287        50.88372         0.81395
C         20.71914        53.02353         1.17460
C         19.44113        52.36305         0.78343
C         20.73525        54.49229         1.51494
C         19.48091        55.27899         1.17576
C         20.90270        57.29548         0.89997
C         19.67881        56.69712         0.84778
C         20.97419        58.79184         0.69419
C         23.20039         3.55696         0.83952
C         22.11170         4.21452         1.38833
C         23.43023         6.32519         1.46886
C         22.16743         5.62055         1.64640
C         23.44428         7.71846         1.72357
C         22.20997         8.49028         2.02424
C         23.47773        10.65828         1.90713
C         22.21301         9.90338         1.48219
C         23.41388        12.08162         1.94394
C         22.19853        12.78913         1.66148
C         23.40808        14.93479         1.68833
C         22.20007        14.20549         1.68485
C         23.41797        16.37599         1.53124
C         22.13937        17.06329         1.33292
C         23.38563        19.25468         1.12118
C         22.14346        18.52582         1.16051
C         23.39281        20.63182         0.83668
C         22.13461        21.35620         0.73783
C         23.34092        23.47280         0.22163
C         22.06828        22.66409         0.28960
C         23.23401        24.62866        -0.73574
C         21.97427        25.37909        -0.75151
C         23.20970        27.53365        -0.97581
C         21.94001        26.75336        -0.97709
C         23.24687        28.96086        -0.55322
C         21.90719        29.66222        -0.37581
C         23.23227        31.85807        -0.62903
C         21.98617        31.05541        -0.96568
C         23.15797        33.23098        -1.23498
C         21.92670        33.91759        -1.31848
C         23.23459        36.03151        -1.04454
C         21.92520        35.33480        -1.37029
C         23.16918        37.45736        -1.58765
C         21.92336        38.17074        -1.03762
C         23.19836        40.30712        -0.78954
C         21.96061        39.64498        -1.42138
C         23.14277        41.81696        -1.05153
C         21.88442        42.40656        -0.34838
C         23.06302        44.54506         0.03302
C         21.88008        43.91123        -0.34267
C         23.03715        45.82803         0.65130
C         21.72694        46.44228         0.86210
C         23.01024        48.59701         1.38319
C         21.71366        47.94492         1.23579
C         23.01293        50.02073         1.49309
C         21.83867        50.74848         1.32128
C         23.16376        52.90684         1.28076
C         21.86195        52.20424         1.74079
C         23.24609        54.33872         1.85672
C         22.04454        55.18287         1.45565
C         23.41063        57.20581         1.00445
C         22.12687        56.54251         1.18727
C         23.50483        58.49923         0.47101
C         22.32718        59.30060         0.26298
C         23.70309        61.11894        -0.60461
C         22.43608        60.57308        -0.25583
C         24.36124         4.26283         0.50168
C         25.66636         6.30198         0.24662
C         24.52726         5.63655         0.80926
C         26.14269         7.53965         0.71166
C         24.60933         8.48971         1.83793
C         26.01573        10.47707         1.58912
C         24.69412         9.91956         1.85652
C         26.31331        11.79228         2.04002
C         24.52342        12.86988         2.30325
C         25.90542        14.86582         1.74579
C         24.65849        14.23825         1.90063
C         25.89422        16.33114         1.61517
C         24.61590        17.06152         1.49550
C         25.86092        19.11978         0.68502
C         24.68746        18.57997         1.49581
C         25.81894        20.51965         0.27783
C         24.63171        21.28523         0.48504
C         25.73068        23.24669        -0.48547
C         24.59874        22.65467         0.01933
C         25.67830        24.38286        -1.46150
C         24.30317        24.95531        -1.50468
C         25.66934        27.52989        -1.44852
C         24.40934        27.06766        -1.68566
C         25.80787        28.89289        -0.78785
C         24.50435        29.70587        -0.85713
C         25.70984        31.80044        -1.25190
C         24.49821        31.07268        -0.96800
C         25.64409        33.14739        -1.58068
C         24.36166        33.86898        -1.85316
C         25.66224        36.04364        -1.66680
C         24.46828        35.34598        -1.58081
C         25.66767        37.48926        -1.50550
C         24.46824        38.21652        -1.37155
C         25.68502        40.30398        -0.83423
C         24.47918        39.61282        -1.18720
C         25.66063        41.67110        -0.43503
C         24.45084        42.48779        -0.66209
C         25.55406        44.39202         0.61228
C         24.38473        43.88291        -0.12751
C         25.47382        45.68698         1.16933
C         24.21508        46.43377         1.14849
C         25.42158        48.47823         1.86575
C         24.18169        47.81750         1.52680
C         25.51498        49.86167         1.90108
C         24.25962        50.69070         2.04237
C         25.63061        52.70693         1.45161
C         24.42081        52.12366         1.59804
C         25.71810        54.13375         0.97010
C         24.58824        54.99124         1.52661
C         25.95339        56.96309         0.66933
C         24.66264        56.44596         1.19852
C         25.96815        58.28903         0.18199
C         24.79490        59.04983         0.08991
C         24.84730        60.37984        -0.43784
C         26.84256         8.57076         0.07621
C         27.94243        10.74371         0.10880
C         26.94039         9.89865         0.62916
C         28.13830        12.09275         0.52624
C         27.23761        12.66480         1.48722
C         28.37982        14.86545         1.08540
C         27.26692        14.15154         1.85348
C         28.34215        16.21749         0.79751
C         27.14619        17.03943         1.13487
C         28.15516        18.91280        -0.29676
C         27.00852        18.38798         0.53781
C         28.19474        20.41918        -0.39776
C         26.99803        21.14117        -0.21296
C         28.17064        23.27067        -1.04468
C         27.07243        22.64645        -0.21568
C         28.13978        24.59162        -1.40060
C         26.88531        25.35071        -1.39503
C         28.13129        27.46860        -2.05191
C         26.87685        26.71311        -1.61706
C         28.17970        28.93862        -1.65093
C         27.04505        29.62305        -1.28346
C         28.17840        31.77645        -1.73835
C         27.04903        31.11681        -0.98385
C         27.93181        33.02471        -2.26537
C         26.82958        33.87012        -1.90390
C         28.15973        35.96475        -1.62520
C         26.92633        35.30687        -1.85385
C         28.23658        37.43162        -1.37187
C         26.92489        38.24332        -1.43716
C         28.10129        40.21049        -0.39727
C         26.91867        39.59939        -0.86119
C         28.04325        41.54555         0.12681
C         26.82034        42.29085         0.08653
C         27.91268        44.18240         1.28553
C         26.75614        43.63392         0.64026
C         27.83656        45.49579         1.84805
C         26.64567        46.23644         1.76430
C         27.89670        48.37815         2.44758
C         26.59276        47.65399         2.19774
C         27.96206        49.81747         2.15739
C         26.79844        50.51782         1.91770
C         28.16528        52.63847         1.68571
C         26.89656        51.90113         1.32824
C         28.18706        54.06313         1.49666
C         27.06180        54.80411         1.17249
C         27.10954        56.19261         0.83608
C         29.24994        12.82865         0.10838
C         30.76880        14.78539         0.10380
C         29.64931        14.05987         0.87309
C         30.80444        16.26151         0.37449
C         29.52623        16.93989         0.42846
C         30.65301        19.06977         0.03558
C         29.48013        18.32712         0.12557
C         30.64995        20.40855        -0.51028
C         29.39068        21.06319        -0.75128
C         30.64675        23.18850        -1.37252
C         29.34958        22.41763        -1.43731
C         30.65678        24.53701        -1.57621
C         29.38200        25.23572        -1.99999
C         30.65067        27.41301        -1.87104
C         29.44127        26.74109        -1.82671
C         30.67707        28.89289        -1.89401
C         29.47991        29.59783        -1.80614
C         30.78060        31.75349        -2.14345
C         29.52795        31.10052        -1.56503
C         30.87581        33.25778        -2.21179
C         29.69208        34.12100        -2.29317
C         30.48431        35.76950        -0.67900
C         29.42657        35.26563        -1.58384
C         30.44701        37.18472        -0.16429
C         29.33599        38.06032        -0.61719
C         30.46162        40.03956         0.36486
C         29.31340        39.41460        -0.25458
C         30.43999        41.36954         0.76545
C         29.20940        42.14368         0.70730
C         30.34427        43.98051         1.93014
C         29.12796        43.41675         1.30364
C         30.32500        45.36815         2.49844
C         28.99996        46.12051         2.62136
C         30.34383        48.29757         2.92840
C         29.17310        47.59348         2.21793
C         30.40467        49.74944         2.47671
C         29.27268        50.46961         2.17076
C         29.29887        51.91066         1.97818
C         31.95867        16.97339         0.42199
C         33.15592        19.12478         0.06264
C         31.92333        18.46693         0.58998
C         33.12145        20.39013        -0.49254
C         31.86792        21.06532        -0.74483
C         33.15176        23.17393        -1.29846
C         31.90011        22.36755        -1.50955
C         33.15415        24.54472        -1.47196
C         31.90682        25.28508        -1.64308
C         33.20872        27.30846        -2.26917
C         31.90722        26.66000        -1.82798
C         33.24879        28.84013        -2.15093
C         31.97382        29.60992        -1.94489
C         33.37437        31.75191        -2.10305
C         32.04263        30.98703        -1.90604
C         33.36147        33.20068        -1.59039
C         32.07655        33.94145        -1.66187
C         33.00515        35.71979        -0.12868
C         31.79445        35.03370        -0.66990
C         32.92367        37.15944         0.17556
C         31.73542        37.82594         0.20332
C         32.95790        39.94348         0.84270
C         31.64133        39.20222         0.80886
C         32.92281        41.31932         1.18372
C         31.66951        42.01742         1.22349
C         32.85994        44.04645         1.97302
C         31.64619        43.34523         1.64443
C         32.81613        45.41681         2.34285
C         31.60488        46.14064         2.51898
C         31.61077        47.51498         2.68398
C         34.35043        21.08192        -0.75754
C         35.61045        23.14431        -1.05040
C         34.37704        22.44028        -1.05765
C         35.65014        24.52210        -1.22814
C         34.41760        25.27582        -1.46525
C         35.79856        27.30567        -1.95832
C         34.45761        26.62280        -1.72952
C         35.79342        28.77772        -1.59323
C         34.57923        29.55816        -1.93254
C         35.65043        31.59858        -0.99273
C         34.55778        30.99192        -1.54470
C         35.63552        32.98247        -0.50559
C         34.42590        33.75541        -0.71486
C         35.43337        35.70878         0.39197
C         34.32263        35.05153        -0.24795
C         35.41690        37.06638         0.61694
C         34.24329        37.89918         0.14844
C         35.39524        39.91141         1.15031
C         34.17143        39.26241         0.78427
C         35.36448        41.26539         1.50194
C         34.14361        41.99920         1.50307
C         34.09299        43.36510         1.86558
C         36.88751        25.20332        -1.13441
C         38.13825        27.26885        -0.98236
C         36.96669        26.58160        -1.32299
C         38.15494        28.67886        -0.86738
C         36.91400        29.40647        -1.13243
C         38.02477        31.41321        -0.09822
C         36.99384        30.91415        -1.07075
C         37.81870        32.66272         0.70959
C         36.66095        33.50232         0.24709
C         37.86748        35.60773         0.98156
C         36.55586        34.85567         0.91235
C         37.85016        36.97622         1.12037
C         36.62905        37.75652         1.02927
C         36.61348        39.12981         1.21550
C         39.28815        29.35612        -0.40788
C         40.35494        31.37115         0.65834
C         39.20983        30.71389         0.04309
C         40.32202        32.69761         0.97180
C         39.09982        33.46361         0.87629
C         39.07802        34.82713         1.04881
O         16.48139        19.11375         2.61064
O         30.94107        32.42796        -3.42856
O         24.93663        55.92213         2.58332
O         11.95025        37.45128         1.45252
O         18.11721        32.64499         0.14737
O         21.56014        31.15444        -2.33522
O         21.68930         8.27308         3.33426
O         24.18095        25.94462        -2.50736
O          9.29850        30.11752        -2.13231
O         25.50994        12.29061         3.09009
O         23.50189        27.91918         0.45976
O         30.27906        44.22097         3.41194
O         20.44489        52.80359        -0.23227
O         24.72815        43.63068        -1.55959
O         25.80144         7.82198         2.06625
O         13.09067        40.23122         1.15388
O         21.48586        46.88119         2.24221
O          9.89765        33.83313        -2.10005
O         16.91463        34.49146        -2.92996
O         19.85280        54.92322         2.58226
O         12.90973        41.47776        -2.24031
O         17.40611        44.60550        -2.94233
O         33.09230        34.20538        -2.66445
O         27.83105        38.15185        -2.58904
O         34.04321        29.34273        -3.27965
O         28.77491        33.62876        -3.21917
O         26.85927        16.99676         2.59554
O         12.22820        26.38537         1.73390
O         15.24869        45.71812        -2.25396
O         18.84025        12.20078         0.36801
O          9.97371        27.65302         1.49794
O         29.99845        36.06057         0.67269
O         17.02563        38.97836         0.00822
O         27.07851        47.95599         3.56134
O         32.18868        34.78631         0.70709
O          6.50536        30.96604        -2.06426
H          7.29590        30.63551        -2.55094
O         23.26224        32.05416         0.81590
H         22.78262        31.29898         1.23953
O         17.38821        47.18721        -2.38838
H         17.32814        46.28884        -2.85259
O         25.86356        23.75279        -2.78100
H         25.54325        24.40237        -3.44568
O         36.03442        27.23474        -3.39929
H         35.15840        27.36546        -3.84123
O         20.61154        59.43797         1.93523
H         21.22256        59.12150         2.63223
O         15.51918        28.46840        -2.76246
H         15.20494        29.27456        -3.22671
O         30.19235        13.68091         2.16544
H         29.44128        13.60428         2.80164
O         31.91086        18.73119         2.05137
H         31.86450        19.70409         2.16769
O         27.66021        14.24747         3.26076
H         27.58547        15.20209         3.49955
O         22.95395        42.06510        -2.46173
H         23.47226        42.88188        -2.67371
O          9.80281        38.67556         2.07912
H         10.69781        38.41629         2.40981
O         37.51615        31.32614        -2.38903
H         36.88698        31.00075        -3.06982
O          9.64527        38.98791        -1.54394
H          9.78902        39.75312        -2.13909
O         23.48862        24.04971         1.56546
H         23.45941        23.30991         2.20918
O         23.19047        54.22611         3.29309
H         23.59827        55.04548         3.65803
O         27.26225        31.22133         0.47078
H         26.76982        30.46709         0.88450
O         24.04731        50.78015         3.50314
H         24.04965        49.86625         3.86196
O         26.06454        28.70852         0.64560
H         25.25132        28.27851         1.01431
O         30.56636        14.62135        -1.31507
H         29.85890        15.23731        -1.59814
O         31.92446        21.95741        -2.92767
H         30.98440        21.77631        -3.18494
O         15.82797        20.06351        -0.86356
H         15.76771        20.88092        -1.40228
O         24.15618        33.75420        -3.31587
H         23.48736        34.42468        -3.57697
O         28.65454        46.07640         4.02608
H         28.92605        45.18464         4.35007
O         22.10815        39.66899        -2.86428
H         22.26378        40.61043        -3.13151
O         21.88022        38.04981         0.42420
H         21.01512        38.40823         0.72125
O         34.47366        38.14907        -1.28487
H         35.34563        38.59075        -1.36817
O         29.28530        24.99288        -3.45302
H         28.66251        25.67617        -3.80720
O         14.70893        25.67818         1.95144
H         13.88627        26.13173         2.26928
O         19.65023        17.16094        -0.50824
H         19.61317        16.26179        -0.89629
O         25.52107        54.08232        -0.48650
H         26.11066        53.35761        -0.81070
O         18.82945        47.65324         2.20233
H         19.61162        47.20746         2.61072
O         23.24222        40.15351         0.65777
H         23.16589        39.18962         0.86678
O         13.26871        24.71047        -1.30764
H         12.55748        24.08982        -1.57302
O         24.94820        18.97269         2.88455
H         25.72533        18.43516         3.17742
O         29.84491        31.24294        -0.13548
H         28.99615        31.14527         0.37630
O         15.16149        40.16628        -2.86270
H         14.30994        40.71088        -2.91758
O         27.98781        27.49187        -3.53263
H         28.66165        28.11421        -3.88358
O         15.53499        49.14327        -2.06913
H         16.10097        48.44974        -2.50431
O         27.90436        18.43460        -1.66804
H         28.42357        19.00173        -2.27827
O         23.01329        37.25211        -3.00906
H         22.78100        38.12818        -3.40838
O         27.42553        23.01780         1.17354
H         26.72186        22.66317         1.75886
O         23.06215        52.98952        -0.15254
H         23.90584        53.36922        -0.51163
O         29.15741        22.11251        -2.87622
H         29.06346        22.98875        -3.33072
O          7.93909        26.90384        -1.49801
H          8.31399        27.52078        -2.16025
O         21.69937        52.20962         3.16549
H         22.51898        51.83432         3.57390
O         17.21944        23.01436         2.35300
H         16.74298        23.85811         2.51977
O         22.38897         9.71155         0.02965
H         22.25830        10.58125        -0.40485
O         30.11011        48.32589         4.35994
H         29.51845        47.56147         4.58276
O         37.47376        32.18202         2.05809
H         37.04682        32.94156         2.52700
O         18.27870        28.67461        -2.88739
H         17.38851        28.34274        -3.16684
O         29.45070        47.58807         0.79672
H         29.77210        48.48100         0.54690
O         13.12302        46.19763         1.54179
H         12.43864        45.55376         1.81675
O         16.88786        42.23631        -3.21398
H         17.05854        43.11514        -3.66038
O         21.83849        42.17876         1.08715
H         22.03446        41.22863         1.27057
O         20.90512        20.92651         2.76259
H         20.56276        21.83528         2.91283
O         23.42553        35.97450         0.38971
H         22.63455        36.36999         0.82156
O         27.00131        51.69301        -0.14319
H         27.86362        51.25659        -0.31534
O         31.33511        38.93260         2.22805
H         31.89681        38.18619         2.52703
O         19.67217        18.33221         2.95619
H         19.93922        19.21561         3.31112
O         33.61500        31.81840        -3.52605
H         32.91967        32.40744        -3.90378
O         33.25714        27.02213        -3.71818
H         32.80531        27.75442        -4.18950
O         20.72123        15.09872         3.31311
H         20.20703        15.92085         3.47425
O         36.20634        34.57296         2.32759
H         36.17215        35.43424         2.79740
O         21.69695        29.81907         1.05778
H         21.97358        28.97107         1.47607
H          4.87503        31.28522         0.23665
H          5.05728        33.64177         0.88661
H          7.32408        27.10699         0.46984
H          6.11836        29.14408         0.10329
H          6.30609        35.75704         0.87896
H          7.51921        37.84436         1.02460
H          9.93259        22.72186         0.65152
H          8.64831        24.81632         0.32161
H          8.73084        40.05062         0.02827
H          9.92014        42.21720        -0.07788
H         12.45413        18.52387         1.13084
H         11.21177        20.64125         1.02463
H         11.36108        44.32196         0.50915
H         12.47793        46.47235        -0.42859
H         15.02093        14.33286         1.82073
H         13.76612        16.38235         1.54206
H         13.75634        48.71016         0.42950
H         14.88298        51.06410        -0.31691
H         17.63570        10.00325         2.61478
H         16.23013        12.38892         2.48846
H         16.05854        53.06205         0.31421
H         17.36726        55.15492         0.52749
H         20.03808         5.72715         1.93521
H         18.72222         7.97463         2.03742
H         18.80178        57.28759         0.53924
H         20.20123        59.10497        -0.05397
H         23.13896         2.48128         0.62364
H         21.17621         3.67442         1.59023
H         23.75524        62.13769        -1.01282
H         21.53122        61.18161        -0.39474
H         25.18139         3.73711        -0.00757
H         26.14795         5.83386        -0.62495
H         26.91813        58.72618        -0.16044
H         25.82635        60.79703        -0.71428
H         27.34118         8.37592        -0.88427
H         28.65591        10.32449        -0.61595
H         29.15127        54.58301         1.61445
H         28.09158        56.66693         0.68436
H         29.88641        12.45249        -0.70632
H         31.74468        14.30637         0.35426
H         31.36736        50.27759         2.56327
H         30.25344        52.43490         2.13986
H         32.93378        16.46554         0.38077
H         34.12680        18.64405         0.25628
H         33.76771        45.95507         2.46940
H         32.57782        48.04123         2.72008
H         35.29805        20.55310        -0.57604
H         36.54523        22.59050        -0.87838
H         36.29391        41.77225         1.80158
H         35.02495        43.89514         2.11172
H         37.77976        24.64480        -0.81177
H         39.02247        26.69473        -0.66413
H         38.79744        37.51858         1.26582
H         37.54718        39.64739         1.48296
H         40.22206        28.79557        -0.25132
H         41.29089        30.80175         0.75591
H         41.23790        33.21162         1.30109
H         40.02414        35.36054         1.23715
