         420
 CSIRO Nanostructure Databank - Neutral Graphene Oxide Data Set
C         27.89011        27.31703         0.13970
C         27.86387        28.72954        -0.12465
C         26.64493        29.44727        -0.39694
C         27.85183        31.55321        -0.79543
C         26.64854        30.80536        -0.64253
C         27.87154        32.96679        -0.96702
C         26.71762        33.76115        -1.04864
C         27.92860        35.91501        -1.18545
C         26.76103        35.16558        -1.23007
C         27.94317        37.37502        -1.22028
C         26.72268        38.09132        -1.14956
C         27.90204        40.22228        -1.10358
C         26.70961        39.47337        -1.10897
C         27.84304        41.69959        -1.07718
C         26.57236        42.39548        -0.79211
C         27.76908        44.34432         0.10858
C         26.56265        43.66065        -0.31945
C         27.63826        45.54170         0.83800
C         30.34279        27.27006         0.26489
C         29.08830        26.62136         0.24459
C         30.30521        28.77997         0.38578
C         29.07087        29.41789        -0.17953
C         30.45539        31.45353        -0.88646
C         29.11110        30.77589        -0.73599
C         30.46940        32.93589        -1.12946
C         29.16163        33.68606        -1.18052
C         30.44985        35.87150        -1.35297
C         29.20114        35.17848        -0.83138
C         30.42981        37.38941        -1.42121
C         29.15178        38.12233        -1.25346
C         30.38671        40.31259        -0.90958
C         29.15735        39.55051        -1.13333
C         30.37405        41.66447        -0.57566
C         29.13576        42.44720        -0.74433
C         30.21501        44.34529         0.48502
C         29.04517        43.75283        -0.06739
C         30.00071        45.46635         1.31626
C         28.74869        46.07623         1.47537
C         32.85442        24.50193         0.75871
C         31.66183        25.14984         0.50595
C         32.82971        27.28054         0.47464
C         31.59052        26.57058         0.40888
C         32.79594        28.76422         0.53144
C         31.59564        29.48474         0.06655
C         32.89466        31.58693        -0.17043
C         31.66212        30.80354        -0.30330
C         32.86546        33.02552        -0.46171
C         31.73006        33.67609        -0.85664
C         32.97799        35.89908        -0.87729
C         31.75726        35.12477        -1.21475
C         32.86771        37.36806        -0.70375
C         31.71750        38.14556        -1.27758
C         32.89176        40.29795        -0.46346
C         31.73329        39.68039        -1.21088
C         32.82856        41.70431        -0.25301
C         31.57725        42.40972        -0.21481
C         32.78857        44.51969         0.31941
C         31.54649        43.75977         0.23381
C         32.95161        45.92366         0.67088
C         32.03319        46.62790         1.49454
C         33.28311        48.70293         1.38428
C         32.18651        47.96383         1.85618
C         35.28787        23.24432         1.76202
C         35.33185        24.55542         1.23381
C         34.08463        25.20721         0.86058
C         35.35049        27.32713         0.51422
C         34.05357        26.60797         0.64472
C         35.35179        28.82880         0.46492
C         34.05431        29.54585         0.62935
C         35.25083        31.72812         0.78270
C         34.04095        30.97817         0.28285
C         35.35921        33.10446         0.16184
C         34.15315        33.77255        -0.40794
C         35.34808        35.98989        -0.17372
C         34.11823        35.25815        -0.45636
C         35.37173        37.40168        -0.22779
C         34.09986        38.12614        -0.29351
C         35.33362        40.25491        -0.09365
C         34.11402        39.60147        -0.35320
C         35.29621        41.70750         0.07567
C         34.02611        42.43623        -0.09896
C         35.22789        44.57627        -0.38503
C         33.99761        43.83611        -0.01638
C         35.30142        46.00698        -0.16266
C         34.18525        46.64817         0.38509
C         35.45628        48.81957         0.18290
C         34.29149        48.06998         0.66610
C         35.41630        50.27993         0.12152
C         37.63613        23.35556         2.26708
C         36.41012        22.67110         2.33608
C         37.78559        24.57128         1.59633
C         36.58809        25.25447         1.20701
C         37.79467        27.41408         0.97832
C         36.61823        26.65833         0.88489
C         37.81532        28.83962         0.78194
C         36.60356        29.57933         0.67947
C         37.79506        31.72375         0.59905
C         36.57474        30.98104         0.65918
C         37.81690        33.13793         0.47622
C         36.53889        33.91868         0.64265
C         37.79642        35.98766        -0.01128
C         36.56409        35.30704         0.07123
C         37.81591        37.41184        -0.14873
C         36.59356        38.12100        -0.15524
C         37.82392        40.26514        -0.02544
C         36.58710        39.56781        -0.07806
C         37.86779        41.69599        -0.08987
C         36.60017        42.43742        -0.00020
C         37.85166        44.54178        -0.52295
C         36.58048        43.83118        -0.50538
C         37.77909        46.00088        -0.91012
C         36.66599        46.67654        -0.08020
C         37.76527        48.91370        -0.75012
C         36.57262        48.16713        -0.27936
C         37.84688        50.42543        -0.50786
C         36.49892        51.01847        -0.18797
C         40.76559        20.21321         1.57351
C         39.86445        20.89216         2.36596
C         40.50070        23.06628         1.34716
C         39.70145        22.28311         2.20755
C         40.40034        24.51666         1.21321
C         39.12877        25.25331         1.60025
C         40.34311        27.46873         1.10322
C         39.06368        26.74574         1.38268
C         40.29179        28.88289         0.70370
C         39.05280        29.57404         0.71301
C         40.26386        31.69475         0.41720
C         39.03584        30.99286         0.56766
C         40.28210        33.13630         0.26087
C         39.02486        33.85240         0.24727
C         40.26895        35.93502        -0.45320
C         39.02115        35.24745         0.03121
C         40.28878        37.41841        -0.18793
C         39.07276        38.12255        -0.13914
C         40.30552        40.24469        -0.05293
C         39.07756        39.54863        -0.05712
C         40.33735        41.72686         0.22202
C         39.05221        42.42258        -0.13615
C         40.30966        44.56506        -0.37708
C         39.04259        43.85775        -0.29958
C         40.29060        46.01184        -0.51913
C         39.10584        46.70341        -0.70062
C         40.37038        48.97891        -0.72112
C         39.08319        48.17024        -0.88429
C         40.24324        50.16949         0.20893
C         38.89150        50.67600         0.63295
C         40.07871        52.76882         1.33637
C         38.92392        52.09588         1.12071
C         42.43704        20.21849        -0.21376
C         41.57544        20.93419         0.65945
C         42.46080        23.08011        -0.19160
C         41.51733        22.36658         0.61654
C         42.61271        24.52108        -0.00494
C         41.49875        25.19307         0.65323
C         42.73952        27.39160         0.21565
C         41.58457        26.66690         0.77073
C         42.73907        28.81445         0.20054
C         41.49497        29.55542         0.40209
C         42.69795        31.70953        -0.00235
C         41.46244        30.96210         0.29492
C         42.76274        33.11749         0.52780
C         41.48951        33.84991         0.20409
C         42.75150        35.95114        -0.04984
C         41.53408        35.24722        -0.02139
C         42.76824        37.38501        -0.18937
C         41.52243        38.11144        -0.18071
C         42.77853        40.25209        -0.22104
C         41.52753        39.54002        -0.13201
C         42.78592        41.70532        -0.32491
C         41.57864        42.43026        -0.26496
C         42.77090        44.59827        -0.64738
C         41.51845        43.84828        -0.41033
C         42.79121        46.04293        -0.37109
C         41.55716        46.74568        -0.40847
C         42.76809        48.83674        -0.04145
C         41.56840        48.14346        -0.34054
C         42.71303        50.22826         0.30311
C         41.42202        50.84988         0.51965
C         42.56469        52.85703         1.33984
C         41.36976        52.17079         1.08679
C         43.19290        20.90453        -1.14046
C         45.11431        23.39768        -1.48773
C         43.19361        22.31332        -1.11811
C         45.06064        24.60331        -0.76166
C         43.81428        25.22782        -0.31515
C         45.14453        27.36499        -0.20586
C         43.89898        26.66035        -0.09984
C         45.17504        28.79181        -0.15294
C         43.94421        29.49441        -0.05748
C         45.24256        31.67770        -0.03465
C         43.96718        30.95672        -0.17823
C         45.23739        33.09730         0.02160
C         44.01819        33.83735         0.12267
C         45.24663        35.94540        -0.10406
C         44.00910        35.22981         0.00945
C         45.25004        37.36650        -0.22656
C         43.98945        38.09154        -0.26397
C         45.23816        40.24794        -0.53258
C         43.97116        39.52234        -0.32633
C         45.26317        41.70717        -0.32900
C         44.05002        42.38836        -0.39699
C         45.31302        44.57727        -0.24632
C         44.08435        43.84797        -0.58364
C         45.28193        45.99240        -0.12523
C         44.02069        46.71563        -0.19302
C         45.21883        48.83875         0.27157
C         44.00541        48.12617         0.02569
C         45.18575        50.24742         0.51373
C         43.90142        50.93175         0.61980
C         43.80244        52.25789         1.10584
C         47.51091        23.22900        -1.27303
C         46.30516        22.69317        -1.71253
C         47.54956        24.53637        -0.74149
C         46.32748        25.24203        -0.54599
C         47.60881        27.34918        -0.27777
C         46.37011        26.65365        -0.29602
C         47.63426        28.77873        -0.25563
C         46.41760        29.49984        -0.21918
C         47.67061        31.66242        -0.20295
C         46.44411        30.95559        -0.14607
C         47.69599        33.07105        -0.13439
C         46.47311        33.80011        -0.04437
C         47.71853        35.92375        -0.08155
C         46.47529        35.22655        -0.07195
C         47.71697        37.34210        -0.10998
C         46.48946        38.03958        -0.23992
C         47.76995        40.22305        -0.12086
C         46.53993        39.49096        -0.47853
C         47.73086        41.66486        -0.04270
C         46.51906        42.39090        -0.18232
C         47.73418        44.53398         0.13144
C         46.52057        43.83807        -0.07774
C         47.73753        45.98065         0.24708
C         46.48377        46.70291         0.13528
C         47.66164        48.84930         0.54115
C         46.46302        48.12909         0.30222
C         47.61383        50.23230         0.72528
C         46.40084        50.92350         0.71147
C         50.03386        24.50628        -0.39267
C         48.81613        25.20574        -0.47047
C         50.08203        27.31270        -0.15828
C         48.84075        26.62057        -0.30335
C         50.09246        28.76181        -0.16522
C         48.89982        29.46146        -0.27584
C         50.18539        31.64662        -0.24285
C         48.91559        30.92874        -0.61446
C         50.18537        33.06473        -0.16276
C         48.94968        33.78840        -0.14835
C         50.19495        35.92513        -0.03481
C         48.95561        35.20187        -0.07915
C         50.18092        37.35456         0.03760
C         48.95865        38.06402        -0.00222
C         50.17039        40.19182         0.60309
C         48.93231        39.49814         0.10653
C         50.19327        41.66646         0.27360
C         48.97215        42.36980         0.13904
C         50.19428        44.49013         0.28947
C         48.96836        43.80408         0.19102
C         50.23479        45.94342         0.66418
C         48.92322        46.65992         0.49577
C         50.09053        48.72153        -0.13584
C         48.98342        48.14659         0.72528
C         51.23388        25.17917        -0.16432
C         52.58711        27.28875         0.23647
C         51.28672        26.57757        -0.07937
C         52.56446        28.77078        -0.08484
C         51.36966        29.47266        -0.15462
C         52.63054        31.63216        -0.12267
C         51.38660        30.92278        -0.18395
C         52.64836        33.05296        -0.10475
C         51.42207        33.78238        -0.09101
C         52.67553        35.92708        -0.03648
C         51.42404        35.20980        -0.04481
C         52.68880        37.33412         0.03783
C         51.44078        38.08082         0.11560
C         52.72778        40.18950         0.54415
C         51.44392        39.45565         0.26038
C         52.68208        41.66340         0.21206
C         51.42205        42.36183         0.24755
C         52.64882        44.52320         0.09309
C         51.41622        43.79341         0.19867
C         52.64330        45.95801        -0.03815
C         51.41199        46.66668         0.05052
C         51.24739        48.02190        -0.35174
C         54.97286        27.29917        -0.47406
C         53.82244        26.61445        -0.31338
C         55.02983        28.74156        -0.30504
C         53.82028        29.47049        -0.16401
C         55.10702        31.58349        -0.20907
C         53.85758        30.89724        -0.15837
C         55.12203        33.03375        -0.19090
C         53.90131        33.75928        -0.12735
C         55.14533        35.88965        -0.19882
C         53.91146        35.19075        -0.11293
C         55.15451        37.33635        -0.21505
C         53.93664        38.04934        -0.01991
C         55.13804        40.17584        -0.20741
C         53.95613        39.47456         0.04183
C         55.13375        41.67460        -0.41108
C         53.85492        42.36309         0.01246
C         55.10178        44.50838        -0.06907
C         53.86075        43.80412        -0.01693
C         55.08592        45.91360        -0.18798
C         53.88956        46.61591        -0.23354
C         56.25311        29.43310        -0.37017
C         56.29370        30.82011        -0.30031
C         56.33820        33.76188        -0.24740
C         56.34898        35.14087        -0.26124
C         56.34288        38.07407        -0.43195
C         56.32303        39.45614        -0.47800
C         56.35166        42.41361         0.08846
C         56.33396        43.76666         0.12263
O         35.74889        44.07290        -1.67739
O         43.19021        31.49159        -1.35333
O         31.00567        45.95308         2.15295
O         28.62422        42.37497        -2.11811
O         35.41245        28.04819        -0.78225
O         43.94167        22.94590        -2.12354
O         31.24551        37.76753        -2.59563
O         33.08632        37.70144         0.71538
O         41.33552        27.18634         2.13543
O         43.48332        44.24556        -1.88258
O         35.97655        42.21692         1.31296
O         35.19175        33.14804        -1.27548
O         38.27837        48.55111        -2.06510
O         33.30342        29.23502         1.86357
O         31.11798        35.34764        -2.51849
O         29.83143        33.28755        -2.40053
O         38.70009        22.83030         3.00676
O         39.12012        26.18189         2.74074
O         29.91012        30.72606        -2.02163
O         45.94941        39.86954        -1.77678
O         30.18030        29.02023         1.85533
H         31.06724        28.86232         2.25247
O         48.88940        30.95758        -2.09830
H         48.84455        31.89938        -2.37014
O         32.02057        40.13422        -2.57741
H         31.54134        39.51785        -3.18245
O         29.33055        35.25724         0.62714
H         28.45835        35.04424         1.02182
O         52.71730        27.20951         1.70310
H         53.54397        27.67861         1.94542
O         50.51644        45.93774         2.13511
H         49.83841        45.36446         2.55417
O         55.16521        41.82406        -1.87851
H         55.17120        42.78620        -2.07146
O         34.99336        31.86181         2.20948
H         35.54681        32.60713         2.54968
O         52.85596        40.17039         2.03367
H         53.04410        39.24145         2.29093
O         40.42057        41.84231         1.70159
H         39.57344        41.50631         2.06665
O         40.70738        49.55638        -2.01673
H         39.97099        50.17963        -2.23434
O         36.36214        34.13348         2.09735
H         37.15510        34.60954         2.42453
O         50.09081        40.13893         2.08027
H         50.99879        40.36069         2.40856
O         40.23369        35.80344        -1.92854
H         41.07860        36.16352        -2.27398
O         38.41275        49.82934         1.73275
H         39.00262        49.98066         2.50132
O         38.36075        51.07376        -1.68915
H         37.86991        50.71140        -2.45850
O         42.82296        32.97461         1.98938
H         42.85852        33.87470         2.37617
O         37.08113        46.47809         1.31399
H         36.47804        46.99849         1.88684
O         49.36728        48.39267         2.11935
H         50.03857        47.70496         2.35838
O         37.39894        46.10112        -2.29732
H         38.14426        45.79083        -2.85073
H         26.93985        26.76433         0.15212
H         25.68972        28.90639        -0.33879
H         25.68346        31.31967        -0.75395
H         25.72679        33.28808        -1.01174
H         25.79766        35.66625        -1.40147
H         25.76502        37.55593        -1.13031
H         25.73899        39.98503        -1.08185
H         25.61847        41.89209        -1.00077
H         25.60481        44.17303        -0.14504
H         26.64719        46.00007         0.96121
H         29.04378        25.52447         0.30769
H         28.65983        46.95500         2.12677
H         32.83819        23.40819         0.85662
H         30.74617        24.54963         0.41866
H         33.36194        49.76587         1.64753
H         31.44840        48.42662         2.52312
H         34.33570        22.70110         1.81087
H         34.46090        50.78837         0.31487
H         36.34967        21.70863         2.85955
H         36.41206        52.11314        -0.25788
H         40.85970        19.12014         1.63338
H         39.22752        20.36304         3.08627
H         40.05142        53.79978         1.72136
H         37.96022        52.57093         1.35714
H         42.44926        19.12036        -0.17520
H         42.52400        53.88004         1.74153
H         43.80915        20.37846        -1.88065
H         44.71144        52.82527         1.34624
H         48.44189        22.67384        -1.44925
H         46.27871        21.74279        -2.26113
H         48.54438        50.78219         0.92291
H         46.41214        52.00911         0.87704
H         50.04947        23.41081        -0.47501
H         49.99899        49.75386        -0.50515
H         52.15150        24.58474        -0.05764
H         52.07212        48.51393        -0.89070
H         55.89440        26.77980        -0.77859
H         53.81996        25.52497        -0.45949
H         56.03996        46.45772        -0.24497
H         53.91396        47.70965        -0.33579
H         57.18749        28.86417        -0.48131
H         57.27101        31.31832        -0.34630
H         57.29778        33.22996        -0.28829
H         57.31640        35.65771        -0.30969
H         57.29163        37.55315        -0.61625
H         57.24645        40.00085        -0.71810
H         57.28710        41.86637         0.27481
H         57.24793        44.33361         0.35703
