         429
 CSIRO Nanostructure Databank - Neutral Graphene Oxide Data Set
C          1.22873         3.62529        -1.71683
C          0.00996         4.32754        -1.64739
C          1.09482         6.32142        -0.66786
C         -0.06757         5.64730        -1.24909
C          1.13237         7.79117        -0.47231
C         -0.08155         8.49632        -0.35402
C          1.11093        10.57511         0.06563
C         -0.09428         9.84755        -0.06227
C          1.09218        11.98722         0.38037
C         -0.10737        12.67998         0.66591
C          1.09477        14.78407         0.90700
C         -0.10634        14.04585         0.90141
C          1.08678        16.24051         1.06430
C         -0.11439        16.97848         0.73140
C          0.95180        19.10667         1.32872
C         -0.15349        18.33371         0.75362
C          1.05014        20.58551         0.99498
C         -0.22970        21.33738         1.26216
C          1.01642        23.44068         1.27974
C         -0.20694        22.69731         1.33590
C          0.96356        24.92181         1.19385
C         -0.20272        25.63338         0.66112
C          1.11731        27.67481         0.21609
C         -0.11656        26.93114         0.25028
C          1.12557        29.03697        -0.45137
C         -0.05124        29.91909        -0.09151
C          1.16163        31.82872        -1.07073
C         -0.04777        31.22417        -0.39147
C          1.19870        33.35452        -1.12984
C          0.01024        34.11060        -1.19129
C          1.26536        36.17957        -1.44671
C          0.03875        35.49047        -1.34881
C          1.31543        37.60416        -1.62894
C          3.67991         3.65428        -1.77275
C          2.46847         4.26998        -1.47771
C          3.65092         6.43981        -0.82846
C          2.44595         5.60767        -0.83839
C          3.62880         7.78983        -0.51140
C          2.36140         8.48540        -0.34465
C          3.57844        10.65719        -0.15125
C          2.35166         9.90032        -0.12801
C          3.53705        12.04807         0.06433
C          2.31724        12.71003         0.39712
C          3.56521        14.82558         0.82400
C          2.32264        14.10734         0.71078
C          3.55215        16.15609         1.53299
C          2.25992        16.91116         1.34387
C          3.52628        19.11365         1.57943
C          2.24398        18.35406         1.61479
C          3.51860        20.48598         1.49726
C          2.23129        21.27226         1.73478
C          3.47753        23.43181         1.26461
C          2.26734        22.75776         1.37315
C          3.50946        24.86032         0.89652
C          2.28332        25.67637         1.06240
C          3.59370        27.73909         0.46071
C          2.31405        27.04787         0.51728
C          3.56424        29.17469         0.21319
C          2.41677        29.79080        -0.18331
C          3.70653        31.81479        -0.83044
C          2.38965        31.29879        -0.28718
C          3.71224        33.27824        -1.27939
C          2.43274        34.02152        -1.25487
C          3.73699        36.12551        -1.48618
C          2.48120        35.43830        -1.38659
C          3.75754        37.54387        -1.67383
C          2.50880        38.25665        -1.75233
C          6.23143         3.66544        -1.57582
C          4.95513         4.35740        -1.66165
C          6.15592         6.37018        -0.53424
C          4.93423         5.81755        -1.23011
C          6.12625         7.88197        -0.52984
C          4.88058         8.54968        -0.46411
C          6.07018        10.68527        -0.30261
C          4.84309         9.96973        -0.34513
C          6.06865        12.16566        -0.29399
C          4.73707        12.88160        -0.13451
C          6.00237        15.00233         0.48248
C          4.76002        14.26923         0.39460
C          6.03123        16.29832         1.00138
C          4.79118        16.99444         1.30403
C          6.04952        19.08432         1.84994
C          4.77082        18.35915         1.49791
C          6.07727        20.54467         1.46059
C          4.78248        21.20734         1.21725
C          6.02538        23.43944         1.41793
C          4.75797        22.70141         1.10447
C          6.03012        24.93726         1.29487
C          4.80380        25.61891         0.79983
C          6.07187        27.80155         0.77464
C          4.79331        27.09561         0.74570
C          6.07777        29.16522         0.56768
C          4.80480        29.98211         0.54779
C          6.14575        31.90974        -0.45917
C          4.93339        31.23423        -0.30388
C          6.17547        33.29851        -0.90424
C          4.97934        33.99819        -1.17923
C          6.20121        36.12238        -1.39948
C          4.97087        35.41848        -1.35388
C          6.21669        37.54157        -1.62151
C          4.98132        38.22421        -1.76061
C          8.68010         3.73844        -1.67385
C          7.44042         4.38321        -1.44175
C          8.63809         6.48194        -0.92431
C          7.43850         5.76889        -1.04758
C          8.62958         7.88841        -0.55253
C          7.34680         8.58621        -0.43161
C          8.55100        10.75022        -0.07369
C          7.29687         9.99747        -0.30594
C          8.53411        12.22368        -0.33426
C          7.28178        12.91834         0.01283
C          8.54236        15.05902         0.22882
C          7.23582        14.41731        -0.19226
C          8.53042        16.27372         0.85547
C          7.29283        17.00328         1.12942
C          8.52378        19.12377         1.52589
C          7.30971        18.36000         1.45377
C          8.53412        20.52586         1.54823
C          7.27154        21.24569         1.43060
C          8.50339        23.39789         1.40913
C          7.31268        22.69966         1.36448
C          8.51641        24.89009         1.48302
C          7.30064        25.67164         1.21064
C          8.60686        27.71485         0.83662
C          7.32777        27.04055         0.96949
C          8.64366        29.18254         0.69765
C          7.33639        29.94270         0.56738
C          8.60520        31.92562        -0.22860
C          7.37346        31.28130        -0.05103
C          8.63109        33.31059        -0.63068
C          7.41549        34.00736        -0.89474
C          8.63453        36.14859        -1.17923
C          7.42990        35.42307        -1.18980
C          8.67713        37.55446        -1.47068
C          7.45170        38.22673        -1.68637
C         11.13379         3.79626        -1.83619
C          9.89946         4.43772        -1.56794
C         11.11102         6.52901        -1.06150
C          9.88441         5.82762        -1.19294
C         11.10387         7.90794        -0.65551
C          9.84007         8.56692        -0.42071
C         11.09286        10.77191        -0.24475
C          9.85086        10.01595        -0.11955
C         11.11897        12.18004        -0.79567
C          9.79947        12.97422        -0.61055
C         11.09812        14.98333         0.31650
C          9.83716        14.50884        -0.39214
C         11.08105        16.31652         0.91029
C          9.79907        16.89600         1.29845
C         11.05573        19.12776         1.55572
C          9.78988        18.39424         1.62126
C         11.00422        20.55287         1.66594
C          9.77974        21.25123         1.64766
C         10.97556        23.41870         1.50138
C          9.77828        22.70249         1.54218
C         11.00431        24.77183         0.83963
C          9.82904        25.61401         1.25884
C         11.07868        27.65067         0.50804
C          9.81037        27.01756         0.82287
C         11.08523        29.06388         0.21914
C          9.88404        29.82154         0.23505
C         11.06408        31.88612        -0.38577
C          9.85726        31.21409        -0.07504
C         11.09378        33.29056        -0.60660
C          9.87376        33.99395        -0.69046
C         11.17616        36.20488        -0.91680
C          9.86756        35.46399        -0.78205
C         11.17662        37.58035        -1.47419
C          9.92144        38.23538        -1.60415
C         13.59244         3.86061        -2.02834
C         12.35772         4.48797        -1.73327
C         13.57219         6.57271        -1.18238
C         12.34618         5.87066        -1.32222
C         13.56278         7.93819        -0.74670
C         12.32500         8.58887        -0.49239
C         13.61297        10.72445        -0.21890
C         12.33329         9.99637         0.06376
C         13.63397        12.18942        -0.14489
C         12.37493        12.95855        -0.35711
C         13.48389        14.85959         1.05846
C         12.26312        14.26844         0.31974
C         13.53493        16.33244         0.63871
C         12.26258        17.03059         1.10976
C         13.54002        19.10621         1.87766
C         12.26075        18.41738         1.45166
C         13.54576        20.60025         1.74341
C         12.25900        21.27741         1.92560
C         13.54105        23.58390         1.92984
C         12.22847        22.79774         1.92967
C         13.49528        24.85118         1.08835
C         12.32052        25.51793         0.88299
C         13.55418        27.62049         0.33310
C         12.29462        26.93129         0.51170
C         13.55562        29.03075         0.05075
C         12.32454        29.70569        -0.06456
C         13.63045        31.87010        -0.50584
C         12.29575        31.10403        -0.49841
C         13.56196        33.32493        -0.45428
C         12.36752        33.99954        -0.66038
C         13.63154        36.06276        -1.15296
C         12.42104        35.41803        -0.92886
C         13.66042        37.36881        -1.90945
C         12.38694        38.16740        -1.80501
C         16.05122         3.94895        -2.26434
C         14.81544         4.55779        -1.92652
C         16.03327         6.63607        -1.35945
C         14.80924         5.92724        -1.47972
C         16.03045         7.99325        -0.89656
C         14.80854         8.62506        -0.58828
C         16.05955        10.73408        -0.05216
C         14.80600        10.03864        -0.27590
C         16.04519        12.07195         0.37337
C         14.83814        12.82467         0.43484
C         16.05714        14.83903         1.10421
C         14.81722        14.15814         0.83330
C         15.98496        16.26870         1.60010
C         14.83119        17.05597         1.00473
C         16.07443        19.18834         1.74550
C         14.81580        18.49141         1.37032
C         16.04949        20.57305         1.76733
C         14.76725        21.31111         1.73324
C         16.04941        23.43804         1.62006
C         14.77246        22.72185         1.68586
C         16.04539        24.88480         1.16210
C         14.77760        25.42706         0.53441
C         16.02802        27.61020         0.29221
C         14.78200        26.93300         0.43392
C         16.04133        29.02020         0.06138
C         14.81515        29.73898        -0.04644
C         16.08454        31.86291        -0.02933
C         14.85534        31.15318        -0.14809
C         16.08940        33.34928         0.08500
C         14.78707        34.09173        -0.19272
C         16.08294        36.12183        -0.83428
C         14.85866        35.44761        -0.75341
C         16.06999        37.52199        -1.25151
C         14.93028        38.13394        -1.66306
C         18.50772         4.06525        -2.58063
C         17.26101         4.65904        -2.18988
C         18.48378         6.75065        -1.66903
C         17.26216         6.01544        -1.72653
C         18.49260         8.10272        -1.19333
C         17.27374         8.71089        -0.78531
C         18.53924        10.69640        -0.07018
C         17.29372        10.03288        -0.25604
C         18.57983        11.95291         0.70463
C         17.27356        12.70087         0.87310
C         18.54278        14.81871         1.31715
C         17.27343        14.16009         1.08702
C         18.51525        16.23627         1.75779
C         17.28582        17.03747         1.58882
C         18.57086        19.15470         1.77512
C         17.30894        18.42000         1.72088
C         18.56146        20.57207         1.67536
C         17.30281        21.30617         1.67489
C         18.52164        23.32697         0.90775
C         17.30274        22.67940         1.51276
C         18.52076        24.83610         0.84603
C         17.31789        25.52673         0.73281
C         18.51568        27.60073         0.17195
C         17.28171        26.91366         0.40583
C         18.50325        28.99077        -0.12672
C         17.28473        29.71853        -0.09751
C         18.57110        31.88076         0.02539
C         17.28508        31.15279        -0.11550
C         18.59990        33.39301         0.12159
C         17.33667        34.11153        -0.12288
C         18.59205        36.12508        -0.83713
C         17.32432        35.44709        -0.51875
C         18.57936        37.45961        -1.30302
C         17.34871        38.31477        -1.13230
C         19.67634         4.78321        -2.54300
C         20.89598         6.90625        -2.07616
C         19.69525         6.14248        -2.09656
C         20.90244         8.21645        -1.64714
C         19.71193         8.85245        -1.18400
C         20.85154        11.08529        -0.77668
C         19.71465        10.18268        -0.65060
C         20.89488        12.29467        -0.17636
C         19.91158        12.66816         0.90834
C         20.99548        14.90055         1.29584
C         19.76259        14.16859         1.15815
C         21.04845        16.23307         1.56269
C         19.83539        16.98273         1.91472
C         21.01113        19.19269         1.86707
C         19.80668        18.46298         1.83975
C         21.00923        20.57352         1.78651
C         19.79746        21.29287         1.64123
C         20.97747        23.47153         1.31411
C         19.80534        22.70975         1.39130
C         20.97387        24.80743         0.91427
C         19.76653        25.51933         0.65420
C         20.98403        27.59413        -0.02180
C         19.75919        26.89737         0.28681
C         20.99890        28.88673        -0.43604
C         19.76022        29.66814        -0.50606
C         21.07517        31.95607        -0.36589
C         19.80808        31.19085        -0.44749
C         21.10988        33.28858        -0.21451
C         19.91475        34.17136         0.07247
C         20.98499        36.03378        -1.27493
C         19.82573        35.43065        -0.77277
C         20.94296        37.31736        -1.82379
C         19.75302        38.04361        -1.79445
O         13.36851        12.92077        -1.44972
O         12.12653        22.05690         3.19563
O         19.13126        16.43742         3.08678
O          9.33843        25.39713         2.60097
O         15.28179        33.89738         1.18413
O          9.16096        10.37870         1.21571
O          5.06173         5.54155        -2.62662
O          5.30963        12.72206        -1.48605
O          1.72789         5.59677         0.44106
O          5.85587        24.27893         2.60896
O          1.63053        25.56169         2.35210
O         10.51202        36.11421         0.39154
O          3.74235        32.15493        -2.25169
O         13.02553        31.34122        -1.74873
O          4.78321        21.89427        -0.11789
O         18.63161        32.54136         1.33429
O          8.91826        12.61465        -1.72086
O         16.07444        24.60947         2.56872
O          9.76537        17.36954         2.68074
O          1.30802        18.74359         2.69904
O         15.04670        18.07341        -0.03131
O          8.04455        29.88522         1.86189
O          4.19049        25.03869        -0.40923
O         19.61862        30.51515        -1.72501
O         17.86570        11.89782         1.98334
O         17.40942        38.92652         0.17497
H         17.46472        38.21052         0.84151
O          6.02483         5.94814         0.86305
H          6.76976         6.33796         1.36747
O          1.18802        31.36164        -2.43097
H          2.04932        31.64167        -2.82319
O         12.31705         9.85052         1.55187
H         11.40324         9.59401         1.80918
O          1.04783        28.75394        -1.87997
H          1.88324        28.31884        -2.14928
O         11.22512        11.92323        -2.22211
H         12.14952        12.16842        -2.48431
O         10.78587        24.54037        -0.59882
H         11.54599        24.02783        -0.94688
O         13.62649        18.85252         3.32596
H         12.82253        19.22696         3.74615
O         15.62291        16.15103         3.01491
H         16.41394        15.84063         3.50541
O         20.13116        34.68001         1.42227
H         19.83370        33.97187         2.03816
O         13.73318        36.97331        -3.34141
H         12.93529        36.43738        -3.53851
O          9.86897        15.11405        -1.70502
H          9.04855        14.80615        -2.16358
O          2.26500        31.82937         1.05901
H          2.97024        31.41459         1.61581
O          1.98447        21.26492         3.15643
H          1.78247        20.33229         3.41943
O          1.31523        20.62950        -0.43132
H          1.44582        21.56620        -0.69088
O          3.61605        15.81600         2.96636
H          3.64256        16.65869         3.46943
O          4.59937        30.45336         1.93335
H          5.47690        30.69734         2.30192
O         18.45048        22.92351        -0.52932
H         19.24982        23.28809        -0.96732
O          7.09272        14.70797        -1.62604
H          6.41251        14.07015        -1.96726
O         20.48289        12.13747         2.14065
H         19.73248        12.04396         2.77146
O         13.47138        16.29660        -0.80481
H         13.82202        17.15622        -1.13369
O         13.67508        24.09821         3.28855
H         13.35330        23.38665         3.88975
O         13.20939        14.80382         2.47505
H         13.46232        13.92291         2.81889
O         14.83719        24.92544        -0.85420
H         14.22193        25.46501        -1.39517
O          6.04190        19.08613         3.33105
H          6.92975        19.37928         3.63065
H          1.23504         2.59809        -2.10832
H         -0.90192         3.82536        -2.00203
H         -1.00576         6.20075        -1.39151
H         -1.03600         7.96068        -0.44282
H         -1.06197        10.34913         0.06448
H         -1.06537        12.14491         0.69299
H         -1.06024        14.55013         1.10663
H         -0.96923        16.42614         0.31703
H         -1.00453        18.87228         0.31305
H         -1.18435        20.79479         1.31389
H         -1.15288        23.24718         1.44665
H         -1.14705        25.08726         0.52304
H         -1.01739        27.41749        -0.15043
H         -0.91369        29.47057         0.42434
H         -0.90552        31.85471        -0.11422
H         -0.96187        33.60274        -1.12912
H         -0.90250        36.05606        -1.40546
H          0.36874        38.16161        -1.67842
H          3.68728         2.59976        -2.08738
H          2.53566        39.34618        -1.89892
H          6.25990         2.57525        -1.71764
H          4.98454        39.31409        -1.91088
H          8.68797         2.67974        -1.97169
H          7.45724        39.30701        -1.89358
H         11.13354         2.73800        -2.13649
H          9.90753        39.29059        -1.91541
H         13.59556         2.81065        -2.35691
H         12.39387        39.19012        -2.21335
H         16.05687         2.90555        -2.61360
H         14.95467        39.19706        -1.94809
H         18.50947         3.02188        -2.92826
H         17.35137        39.15164        -1.87410
H         20.62129         4.31834        -2.86029
H         21.83163         6.43483        -2.41054
H         21.85032         8.77207        -1.63676
H         21.65592        10.80681        -1.47365
H         21.75050        12.95866        -0.36713
H         21.93510        14.36035         1.11454
H         22.01687        16.75119         1.52625
H         21.97086        18.66774         1.96205
H         21.96944        21.10507         1.80522
H         21.94613        23.01635         1.56380
H         21.93857        25.32731         0.85424
H         21.93601        27.04846         0.02491
H         21.94409        29.36076        -0.73308
H         22.01591        31.40720        -0.52202
H         22.09361        33.77947        -0.16730
H         21.94575        35.50356        -1.23181
H         21.85879        37.77248        -2.22516
H         19.72955        39.08145        -2.15647
