         288
 CSIRO Nanostructure Databank - Neutral Graphene Oxide Data Set
C        -10.64350         0.65026        -1.81289
C         -9.68264         1.50399        -1.01325
C         -8.42533         0.69146        -0.68953
C         -7.14700         1.39339        -0.40102
C         -5.96919         0.61477         0.23264
C         -5.07409         1.49781         1.11709
C         -3.89691         0.84753         1.95727
C         -2.50985         1.44905         1.52053
C         -1.33605         0.84005         2.35476
C          0.06310         1.54578         2.18257
C          1.27193         0.87378         1.49653
C          2.66389         1.48145         1.98686
C          3.86292         0.75306         1.32321
C          5.01634         1.52257         0.70848
C          6.27808         0.77295         0.37475
C          7.40258         1.45260        -0.03525
C          8.63843         0.75449        -0.47046
C          9.94405         1.45330        -0.74056
C         11.00962         0.61246        -1.37231
C         -9.31614         2.79514        -1.70482
C         -8.24946         3.50077        -1.29060
C         -7.36359         2.91381        -0.18225
C         -6.04822         3.68765        -0.01401
C         -5.01596         2.97388         0.84304
C         -3.73906         3.74736         1.15225
C         -2.51734         2.99573         1.63053
C         -1.17002         3.69876         1.55393
C          0.08471         3.04899         2.09734
C          1.39796         3.80301         1.85304
C          2.69022         3.03624         1.81311
C          3.94321         3.79332         1.37038
C          5.07123         3.01638         0.76568
C          6.45884         3.68751         0.62367
C          7.13499         2.84048        -0.44433
C          9.33532         3.94057        -0.44980
C         10.09005         2.94012        -0.89581
C         -8.08549         4.95045        -1.68165
C         -6.64469         5.37331        -1.88152
C         -5.70671         4.88135        -0.84168
C         -4.23552         5.22178        -0.94242
C         -3.57390         5.08590         0.43788
C         -2.31580         5.85350         0.62737
C         -1.12905         5.16096         1.23132
C          0.08068         6.01557         1.50783
C          1.38774         5.29831         1.55235
C          2.52630         5.89269         0.71573
C          3.89857         5.25469         0.99986
C          5.12228         5.88888         0.34612
C          6.43123         5.16030         0.24614
C          7.58221         5.78888        -0.63201
C          8.87083         5.13640        -0.09599
C         -6.26243         6.29417        -2.78492
C         -4.84248         6.80393        -2.90840
C         -4.00604         6.53739        -1.66494
C         -2.93281         7.31376        -1.40039
C         -1.93509         6.88161        -0.40194
C         -0.81005         7.80163        -0.07127
C         -0.04871         7.51536         1.20275
C          1.31027         8.22711         1.13793
C          2.60290         7.45709         0.76613
C          2.85398         8.15925        -0.60562
C          5.12329         6.90869        -0.76174
C          6.25500         7.88085        -0.66286
C          7.47929         7.30721        -0.47387
C         -4.80843         8.27521        -3.25990
C         -3.76521         9.05672        -2.95948
C         -2.54014         8.50298        -2.27358
C         -1.76443         9.55311        -1.48953
C         -0.88970         9.21869        -0.51688
C         -0.10042        10.23967         0.30562
C          1.26979         9.67006         0.72069
C          2.53389        10.30965         0.21782
C          3.47609         9.52304        -0.37105
C          4.82961         9.99301        -0.64786
C          6.00974         9.31394        -0.73309
C        -10.50453        -0.67097        -1.98884
C         -9.35085        -1.47873        -1.42858
C         -8.74181        -0.71246        -0.22507
C         -7.55941        -1.45843         0.42402
C         -6.44971        -0.60215         1.08158
C         -5.19714        -1.43474         1.50173
C         -3.92991        -0.71600         1.93371
C         -2.59075        -1.45676         2.07576
C         -1.28090        -0.71558         2.17087
C          0.00914        -1.44464         1.80711
C          1.27183        -0.66488         1.56290
C          2.36261        -1.34912         0.72182
C          3.72344        -0.66112         0.84112
C          4.76086        -1.22330        -0.12314
C          6.14865        -0.62129        -0.00117
C          7.09965        -1.20599        -0.80069
C          8.40014        -0.59597        -1.09096
C          9.57376        -1.41680        -1.60125
C         10.89108        -0.71385        -1.58525
C         -9.76716        -2.89105        -0.97505
C         -8.50253        -3.65996        -0.62493
C         -7.49501        -2.94854         0.21509
C         -6.28491        -3.76177         0.67217
C         -5.06304        -2.84625         0.96763
C         -3.77736        -3.55885         1.18826
C         -2.60420        -2.98753         1.92691
C         -1.33951        -3.66997         1.17074
C         -0.08099        -2.74986         0.96207
C          1.23434        -3.54606         0.96106
C          2.40884        -2.86294         0.86851
C          3.73954        -3.53498         0.66939
C          4.87433        -2.72777         0.10188
C          5.92708        -3.36223        -0.77195
C          6.57741        -2.31832        -1.65784
C          8.61958        -3.73828        -2.02839
C          9.53308        -2.91511        -1.51540
C         -8.35264        -4.94390        -1.00169
C         -7.06332        -5.73533        -0.97956
C         -5.92851        -4.95089        -0.25680
C         -4.62468        -5.66105         0.17839
C         -3.84338        -5.08892         1.36232
C         -2.47930        -5.82904         1.60689
C         -1.14246        -5.04109         1.82536
C          0.06811        -5.84663         1.32644
C          1.19903        -5.05482         0.65184
C          2.54047        -5.76891         0.91128
C          3.78253        -5.02577         0.41425
C          4.84190        -5.64790        -0.46757
C          5.95509        -4.81872        -1.06753
C          6.59104        -5.29388        -2.37787
C          7.95844        -4.68277        -2.67662
C         -7.26538        -7.18761        -0.49362
C         -6.29177        -8.10993        -0.69315
C         -4.54909        -7.07513        -0.04948
C         -3.78478        -7.95930         0.81696
C         -2.49196        -7.29169         1.29308
C         -1.29859        -7.95410         0.59164
C          0.02268        -7.32417         1.05045
C          1.25442        -8.03720         0.54350
C          2.52549        -7.25016         0.43322
C          3.57175        -7.81714        -0.50422
C          4.41446        -6.83740        -1.34782
C          5.56953        -7.54432        -2.04968
C          6.62983        -6.80647        -2.46442
C         -6.15829        -9.54310        -0.43393
C         -5.00562       -10.12149        -0.01820
C         -3.83674        -9.44692         0.63006
C         -2.52014       -10.14542         0.65578
C         -1.34302        -9.47887         0.63432
C         -0.02987       -10.22610         0.45622
C          1.09859        -9.37365        -0.09373
C          2.11404        -9.91714        -0.80608
C          3.36936        -9.18685        -1.09007
C          4.22840        -9.60285        -2.22120
C          5.33259        -8.89400        -2.54856
O          3.61104        -6.27142        -2.34573
O         -8.11401        -2.37272         1.42467
O         -2.55014        -6.87258         2.65206
O         -4.34012        -8.80006         1.86972
O         -4.88763        -1.26691         2.90366
O          7.12540         3.07837        -1.65052
O         -1.92152        -1.24345         3.36476
O          1.95758        -1.06169        -0.71219
O         -7.04061        -0.04012         2.25227
H         -7.61392        -0.72040         2.66726
O          4.28353        -0.37984         2.13604
O         -4.75591        -4.87643        -1.05527
O          4.59080         2.34323        -0.45009
O          6.17629         6.06917         1.34310
O          2.20374         7.92122        -1.60337
O         -1.65010         8.00192        -3.30349
H         -0.93042         7.50581        -2.84587
O         -0.28633        -2.18440        -0.36634
H          0.34029        -2.60039        -1.00488
O         -7.41171         0.86073        -1.74887
O          2.11342        -2.25321        -1.53759
H          2.94063        -2.03350        -2.05116
O         -1.75228        -4.06696        -0.15311
H         -1.83173        -3.25399        -0.70774
O          0.91411        -5.12981        -0.76307
H         -0.05241        -4.97810        -0.89901
O         -3.52034         6.22424         1.34657
O         -8.09066         3.03812         1.00934
O          4.94096        -5.76279         0.96099
O         -5.75463         2.43769         1.97851
O          0.29863        -6.85288         2.38226
O          4.40901         6.76421        -1.74278
O         -0.61407         6.73212        -1.04886
O          4.84444        -3.07033         1.50420
O         -2.80606        -3.50442         3.24628
H         -2.24184        -2.98701         3.86878
O         -1.45855        -7.58191        -0.74924
O         -9.75524        -0.64764         0.79472
H        -10.16960         0.25591         0.80381
O         -3.39247         3.68332         2.55494
O         -6.72587        -4.41021         1.87527
H         -7.28340        -3.76907         2.37460
O         -4.21881         6.06546        -3.99492
H         -4.13303         5.13246        -3.69857
O          9.66018         0.85977         0.58432
O          4.26851         4.82674         2.33276
O         -3.63511         4.17604        -1.76666
H         -2.68521         4.39144        -1.89767
O         -1.71015         1.09232         3.69817
H         -1.06882         0.66764         4.30304
O          1.44949         9.26646         2.13932
O          8.69189        -0.73288        -2.52681
O         -4.04337        -2.90647        -0.08013
O         -5.04856        -7.55215        -1.22157
O         -0.80455         4.11423         0.19794
O          0.21778         2.37059         3.36795
O          2.23420         3.64389         3.04572
O         -6.24779         5.03305         0.50441
O          1.03363        -1.32827         2.82786
O          2.67255        -5.74884         2.33723
H          3.52787        -6.17257         2.56707
O          6.49513        -2.24939        -2.86565
O         -4.11830         1.23229         3.29900
H         -4.94697         0.80456         3.60461
O          1.07188         1.27654         0.11965
H          1.39126         0.58435        -0.50636
O          5.68265        -4.88635        -3.43434
H          4.81706        -5.36666        -3.27594
O          0.84627         5.93160         2.75080
O          2.78061         1.20805         3.37412
H          2.28264         1.90932         3.85992
O          4.26091        -8.91231         0.09615
O         -8.89145         5.22866        -2.81683
H         -9.00696         6.19649        -2.89143
O         -2.31721         1.12105         0.13734
H         -1.47825         1.51887        -0.18392
O          7.40154         5.60873        -2.02661
H          7.43570         4.64788        -2.25353
O         -8.35424        -1.66243        -2.45697
H         -8.07584        -0.77496        -2.77655
O          0.41051       -10.71429         1.73622
H          0.93619       -10.01286         2.17787
O        -10.33174         1.87639         0.23372
H         -9.65823         2.43118         0.73771
O         -4.61141        -5.38138         2.53158
H         -4.11813        -5.00977         3.30001
O          3.63656         7.82861         1.67521
H          3.24961         8.44756         2.33815
O          2.30492        -8.12563         1.57110
O          7.15466         3.53137         1.86350
H          6.81655         4.22090         2.47821
O          6.86866        -4.24954        -0.09148
O          4.36469        -0.98815        -1.49808
H          4.59760        -0.06878        -1.75147
O         -6.70448        -5.83414        -2.37292
H         -5.73025        -5.70555        -2.45499
O          2.17946         5.44695        -0.60759
H          2.73595         5.90678        -1.28670
O         -0.81998         8.08099         2.27047
H         -0.32332         7.94073         3.10597
O         -0.88631        -4.84896         3.21299
H         -0.61423        -5.71995         3.58354
O        -10.48742        -3.54688        -2.01088
H         -9.95531        -3.46657        -2.83071
O         -5.13406         0.11458        -0.82011
H         -5.67047         0.09646        -1.64753
O          0.06325        11.45175        -0.41927
H          0.50039        11.25116        -1.27225
H         11.76929        -1.28635        -1.92095
H         11.99202         1.09025        -1.51364
H         10.90691         3.22485        -1.58855
H          9.28254         5.59664         0.82249
H          8.39062         7.91981        -0.39248
H          6.91689         9.93101        -0.84106
H          4.91053        11.09328        -0.67603
H          2.72840        11.36130         0.48483
H         -0.68606        10.47573         1.23035
H         -1.85789        10.60908        -1.78995
H         -3.76362        10.11922        -3.24855
H         -5.67616         8.69126        -3.79550
H         -6.98991         6.65410        -3.53008
H         -8.46460         5.55193        -0.79912
H         -9.99967         3.22226        -2.45419
H        -11.50945         1.16903        -2.25377
H        -11.24610        -1.22320        -2.58797
H        -10.43012        -2.81322        -0.07850
H         -9.16718        -5.39990        -1.58766
H         -8.25840        -7.49781        -0.13787
H         -7.01981       -10.18364        -0.67865
H         -4.98486       -11.22146         0.04939
H         -2.52939       -11.24448         0.57586
H         -0.19903       -11.11962        -0.19880
H          2.01663       -10.94063        -1.20216
H          4.01586       -10.56722        -2.70565
H          6.02572        -9.27756        -3.31268
H          7.41518        -7.27400        -3.07967
H          8.38677        -5.02011        -3.64005
H         10.29128        -3.34932        -0.83592
