         651
 CSIRO Nanostructure Databank - Neutral Graphene Oxide Data Set
C          5.75696        31.69539        -0.28159
C          5.75690        33.05361        -0.43571
C          8.27995        27.39777        -0.02871
C          8.22096        28.78024         0.07350
C          7.01296        29.54422        -0.08183
C          8.20839        31.70974        -0.21954
C          6.98422        30.94283        -0.15628
C          8.21865        33.06678        -0.48032
C          6.98277        33.82516        -0.53760
C          8.19645        36.02232        -0.70697
C          6.96483        35.20994        -0.63367
C          8.26121        37.46865        -0.39371
C         10.93609        23.10992        -0.11619
C         10.86734        24.54565         0.00643
C          9.60821        25.27380        -0.05977
C         10.76880        27.45712         0.03002
C          9.52209        26.65616         0.01739
C         10.75662        28.87206         0.37469
C          9.42841        29.57261         0.52899
C         10.75331        31.70150         0.02674
C          9.47894        30.94729        -0.10343
C         10.60121        33.19781         0.25054
C          9.55105        33.75216        -0.74270
C         10.66816        35.99441        -0.07711
C          9.49303        35.27857        -0.71798
C         10.74520        37.46243        -0.34525
C          9.46103        38.16797        -0.32809
C         10.70075        40.29970        -0.14108
C          9.51021        39.60833        -0.33389
C         10.77965        41.71062        -0.24545
C         13.40620        18.83375         0.15376
C         13.42027        20.23816         0.11358
C         12.21509        20.97307        -0.09280
C         13.42804        23.12735        -0.09930
C         12.14384        22.38624        -0.11654
C         13.35004        24.58306         0.26526
C         12.04016        25.24958         0.29932
C         13.24976        27.45700         0.74649
C         12.10462        26.71319         0.21369
C         13.19172        28.83341         0.81653
C         11.95353        29.55359         0.55810
C         13.14049        31.72587         0.55328
C         11.97601        31.01215         0.50912
C         13.15458        33.18602         0.32548
C         11.91412        33.92938         0.08432
C         13.14667        35.96748        -0.84662
C         11.96105        35.24462        -0.22625
C         13.23910        37.42338        -0.39965
C         11.95578        38.10788        -0.24363
C         13.19129        40.28017         0.03346
C         11.93941        39.51928         0.27939
C         13.18780        41.70995         0.46182
C         11.97414        42.44167        -0.09245
C         13.26179        44.56110        -0.12277
C         12.05044        43.82172        -0.29892
C         13.31048        45.95761        -0.25304
C         15.73153        14.57410         0.79564
C         15.61207        15.93848         1.40425
C         14.50294        16.70622         0.73766
C         15.72408        18.80658         1.03511
C         14.54169        18.08068         0.58655
C         15.81278        20.22421         0.77071
C         14.69643        20.91645         0.30779
C         15.97063        23.13962         0.44747
C         14.73401        22.37214         0.05557
C         15.80070        24.52758         1.00230
C         14.47997        25.22021         1.01258
C         15.72876        27.42280         1.20293
C         14.40081        26.71126         1.39770
C         15.71659        28.87920         1.28381
C         14.39786        29.60338         1.21677
C         15.64733        31.68387         0.32545
C         14.42367        31.09397         0.95443
C         15.47021        32.80681        -0.43619
C         14.42812        33.80630        -0.18188
C         15.81704        35.92313        -0.87621
C         14.48330        35.18315        -0.80795
C         15.74129        37.43566        -0.75108
C         14.42618        38.10934        -0.45604
C         15.65401        40.23381         0.27509
C         14.44792        39.64094        -0.47957
C         15.68910        41.71923         0.34069
C         14.49038        42.42862         0.22996
C         15.73140        44.53534         0.14522
C         14.49213        43.83856         0.11597
C         15.74595        45.97005         0.09740
C         14.52069        46.68567        -0.09460
C         15.68055        48.86395         0.11720
C         14.53071        48.11176        -0.16294
C         15.73108        50.26406        -0.03345
C         18.10882        10.81097        -1.22201
C         18.11620        12.05658        -0.55283
C         16.94008        12.70714        -0.17649
C         18.17956        14.85074         0.45749
C         16.92099        14.00774         0.42325
C         18.13037        16.01573         1.45292
C         16.92655        16.69536         1.53861
C         17.80750        18.95975         2.26642
C         16.76847        18.14313         1.69072
C         18.12390        20.22383         1.86736
C         17.12823        20.89278         0.99864
C         18.24770        23.12388         1.68638
C         17.19060        22.39248         0.91216
C         18.24444        24.61579         1.56588
C         17.02590        25.32579         1.13632
C         18.21506        27.46257         1.03161
C         16.95713        26.73795         1.17890
C         18.22896        28.81617         0.68028
C         17.00417        29.60751         0.88224
C         18.28079        31.63969        -0.11158
C         16.91127        30.92125         0.18491
C         18.37756        33.11638        -0.22465
C         17.31213        33.86033        -0.74582
C         18.30461        35.94577        -0.17745
C         17.14007        35.25274        -0.55790
C         18.32768        37.41975        -0.28846
C         17.01772        38.16107        -0.40679
C         18.22942        40.25374         0.50187
C         16.95699        39.50197         0.27109
C         18.17631        41.68185         0.60488
C         16.93645        42.40743         0.39496
C         18.23963        44.54971         0.08673
C         16.94251        43.81535         0.28899
C         18.19013        46.01257         0.46035
C         16.97023        46.67096         0.33774
C         18.16843        48.88107         0.76882
C         16.88984        48.12904         0.57339
C         18.15497        50.37066         0.61325
C         16.91546        51.03365         0.13912
C         18.21273        53.11750        -0.30184
C         16.98057        52.37557        -0.23135
C         18.22988        54.45978        -0.71348
C         20.45696         7.02646        -3.38790
C         20.49216         8.28836        -2.76479
C         19.28115         8.95195        -2.36680
C         20.55071        10.95503        -1.68890
C         19.27857        10.19850        -1.74032
C         20.66479        12.10397        -0.74415
C         19.40937        12.67714        -0.17615
C         20.69215        14.60989         0.63409
C         19.46559        14.04647         0.38259
C         20.73771        15.80243         1.51429
C         19.46923        16.46706         1.96194
C         20.77186        18.61608         2.22346
C         19.67743        17.83615         2.48356
C         20.73330        20.10401         2.46380
C         19.41232        20.88504         2.30044
C         20.84294        23.04889         1.89620
C         19.51949        22.37963         2.08044
C         20.85083        24.53201         1.65502
C         19.55794        25.33499         1.51500
C         20.50442        27.37646         0.36739
C         19.43223        26.70995         0.93113
C         20.69339        28.78767         0.44936
C         19.46307        29.53644         0.50402
C         20.71270        31.64761         0.63896
C         19.48033        30.92720         0.34035
C         20.76809        33.11488         0.43750
C         19.54619        33.82671         0.16887
C         20.74128        35.96936         0.42010
C         19.51907        35.25401         0.12427
C         20.76344        37.38530         0.55322
C         19.55499        38.15406         0.16523
C         20.64812        40.21348         1.10522
C         19.43887        39.56523         0.57594
C         20.58876        41.72388         1.28075
C         19.37284        42.42847         0.82398
C         20.65318        44.54338         0.73073
C         19.41343        43.81687         0.66715
C         20.63960        45.98945         0.72049
C         19.43552        46.70774         0.70756
C         20.65292        48.86841         0.65377
C         19.46617        48.16259         0.72331
C         20.69315        50.27475         0.09874
C         19.45878        51.07991         0.43204
C         20.69679        53.15385        -0.10531
C         19.45981        52.47174        -0.04134
C         20.69619        54.53815        -0.42532
C         19.44687        55.19848        -0.77338
C         20.66332        57.38542        -0.94822
C         19.44310        56.54078        -1.14967
C         20.70330        58.65919        -1.74385
C         22.79282         4.61150        -5.03960
C         21.61135         5.17883        -4.56177
C         22.91436         6.91233        -3.39928
C         21.64650         6.36601        -3.77838
C         22.94870         8.11712        -2.65231
C         21.77141         8.85388        -2.45115
C         23.09657        10.79337        -1.40681
C         21.85183        10.24624        -1.99022
C         23.14740        12.07016        -0.88584
C         21.91324        12.95755        -0.87263
C         23.17769        14.57397         0.55314
C         21.96150        14.03583         0.19766
C         23.25819        15.72432         1.54623
C         22.00184        16.57388         1.57117
C         23.29819        18.62454         1.99930
C         22.00578        17.91272         1.86504
C         23.34278        20.12912         2.15089
C         22.03404        20.88772         2.33233
C         23.33884        23.00325         1.82886
C         22.03105        22.34881         2.00680
C         23.33570        24.51522         2.11253
C         22.18700        25.12379         1.37306
C         23.38269        27.29729         0.91690
C         22.37021        26.30845         0.71421
C         23.23136        28.64188         0.54903
C         21.97952        29.37217         0.44741
C         23.28648        31.59337         0.53984
C         22.02302        30.83369         0.71375
C         23.25537        33.06509         0.54025
C         21.98301        33.79250         0.50393
C         23.17607        35.96100         0.63540
C         21.96480        35.24096         0.52008
C         23.18823        37.35037         0.85043
C         21.95967        38.07288         0.85002
C         23.14837        40.22653         1.15267
C         21.97147        39.52910         1.02171
C         23.17784        41.71045         1.26045
C         21.88455        42.47614         1.29134
C         23.10661        44.54202         0.31862
C         21.86560        43.87329         0.83738
C         23.18627        46.00103         0.70597
C         21.91740        46.66667         0.99019
C         23.20567        48.89917         0.68899
C         21.92956        48.21449         0.94566
C         23.15607        50.32978         0.55250
C         21.96755        51.03732         0.38024
C         23.13761        53.22873         0.26746
C         21.94729        52.47771         0.21401
C         23.16594        54.58335        -0.20755
C         21.93012        55.24203        -0.51484
C         23.13253        57.15681        -1.41772
C         21.93856        56.58223        -1.00522
C         23.10916        58.34132        -2.35291
C         21.85376        59.17474        -2.25591
C         23.12017        61.12277        -3.04592
C         21.91256        60.51381        -2.78975
C         24.02979         5.19130        -4.76504
C         25.35646         7.00311        -3.75231
C         24.13181         6.34255        -3.93008
C         25.51901         8.03466        -2.73762
C         24.22774         8.58394        -2.07870
C         25.58281        10.62215        -1.35463
C         24.28512         9.86528        -1.23783
C         25.67627        11.86114        -0.50460
C         24.38154        12.65170        -0.42833
C         25.71850        14.51397         0.46112
C         24.42336        13.91972         0.14899
C         25.77260        15.75615         1.25656
C         24.51816        16.54748         1.38448
C         25.77741        18.66890         1.73415
C         24.52149        17.89091         1.58689
C         25.72702        20.13255         1.45791
C         24.56069        20.84763         1.65264
C         25.68155        23.05213         0.92396
C         24.49791        22.30283         1.55177
C         25.85695        24.48011         1.43231
C         24.65172        25.26231         1.81023
C         25.76181        27.24570         0.52291
C         24.66976        26.79264         1.54587
C         25.78090        28.76028         0.53557
C         24.47680        29.41567         0.13532
C         25.71740        31.63484        -0.00132
C         24.45344        30.90718         0.37692
C         25.73100        33.08585         0.41547
C         24.44747        33.76325         0.47805
C         25.65846        35.92458         0.93335
C         24.46345        35.25699         0.30225
C         25.64888        37.40304         0.92770
C         24.45822        38.06158         0.99694
C         25.68692        40.23899         0.85157
C         24.47029        39.51718         1.39444
C         25.72991        41.74974         0.98939
C         24.40036        42.44990         0.83906
C         25.61835        44.55199         0.36461
C         24.38271        43.79084         0.57930
C         25.62125        45.98080         0.38147
C         24.38271        46.70489         0.62470
C         25.68667        48.82657         0.54068
C         24.41768        48.16239         0.66742
C         25.70575        50.28626         0.79573
C         24.41267        51.06264         0.79271
C         25.71044        53.28909         0.44155
C         24.41145        52.56865         0.64856
C         25.71142        54.78133         0.09032
C         24.38823        55.27409        -0.46312
C         25.61902        57.16847        -1.51440
C         24.37006        56.50540        -1.13759
C         25.59116        58.47354        -2.04840
C         24.38733        59.14793        -2.33551
C         24.35306        60.46964        -2.77877
C         26.72521         8.84599        -2.62828
C         28.00572        10.77301        -1.76774
C         26.75119        10.06399        -1.91663
C         28.08060        12.04406        -1.21206
C         26.79290        12.79199        -0.96497
C         28.18627        14.61120         0.15559
C         26.90457        13.97691        -0.02456
C         28.32300        15.85913         0.80453
C         27.10870        16.44932         1.42554
C         28.32219        18.67450         1.37264
C         27.08232        17.93001         1.67171
C         28.31264        20.06189         1.32324
C         27.01159        20.78357         1.09815
C         28.31262        22.92327         1.28997
C         27.00112        22.26129         0.87179
C         28.35469        24.46533         1.18727
C         27.08880        25.21752         1.02176
C         28.29567        27.34825         0.57525
C         27.08412        26.56030         0.72248
C         28.29057        28.81340         0.23102
C         26.97111        29.50056         0.55009
C         28.26791        31.64453         0.06091
C         26.98624        30.88188         0.29409
C         28.21565        33.00946         0.76651
C         26.91790        33.74982         0.57806
C         28.19617        35.96445         0.69961
C         26.95160        35.18787         0.94616
C         28.15362        37.33023         0.61676
C         26.96274        38.12250         1.12778
C         28.07826        40.29042         0.29832
C         26.86272        39.56773         0.65736
C         28.07361        41.65133         0.09876
C         26.74235        42.35189         0.01461
C         28.01105        44.53800        -0.14483
C         26.80994        43.85252         0.14640
C         28.03459        45.96520        -0.13953
C         26.83894        46.68277         0.16990
C         28.16155        48.79808         0.11765
C         26.88153        48.12334         0.28286
C         28.22400        50.27342         0.31257
C         26.98400        51.05087         0.59768
C         28.16014        53.14968        -0.25938
C         26.84606        52.40736        -0.10295
C         28.10240        54.50624        -0.68056
C         26.90831        55.22790        -0.72194
C         26.84189        56.48557        -1.34735
C         29.30170        12.71491        -1.01333
C         30.59403        14.67881        -0.32883
C         29.36748        13.99300        -0.40127
C         30.74625        15.95027         0.26438
C         29.57292        16.55014         0.88078
C         30.73537        18.69258         1.43757
C         29.55178        17.93973         1.30005
C         30.82226        20.07185         1.11683
C         29.55671        20.75351         1.10522
C         30.69424        22.61740         0.20241
C         29.52025        22.12508         0.77510
C         30.78707        24.74992         0.32095
C         29.57280        25.28577         0.94013
C         30.76389        27.42799         1.04909
C         29.49646        26.73747         0.75119
C         30.73315        28.89514         0.97607
C         29.55112        29.52767         0.69291
C         30.70894        31.68511         0.48113
C         29.53671        30.95552         0.50930
C         30.66329        33.12180         0.24722
C         29.45021        33.82604         0.43471
C         30.64818        35.94475         0.20893
C         29.42496        35.23221         0.40517
C         30.64832        37.38511         0.08970
C         29.33105        38.04265         0.07213
C         30.57934        40.27350        -0.16612
C         29.30243        39.54710        -0.05396
C         30.53490        41.70300        -0.27673
C         29.28106        42.37285        -0.21840
C         30.36374        44.48268        -0.82910
C         29.20957        43.78489        -0.39424
C         30.32830        45.90558        -0.95435
C         29.24000        46.67480        -0.49147
C         30.59485        48.84246        -0.69050
C         29.29000        48.11562        -0.32112
C         30.55011        50.33111        -0.49999
C         29.40702        51.00959        -0.20577
C         29.34798        52.44327        -0.31301
C         32.01547        16.59563         0.00965
C         33.49126        18.66822         0.29087
C         32.50723        17.71994         0.66377
C         33.37796        20.06121         0.58330
C         32.07815        20.73479         0.80552
C         33.19566        22.93216         0.05883
C         31.99564        22.07731         0.36367
C         33.21608        24.46753         0.13112
C         32.02159        25.24939         0.53796
C         33.37700        27.39348         1.03090
C         32.05577        26.63808         1.08313
C         33.15129        28.83080         0.46311
C         32.05075        29.62768         1.18958
C         33.14328        31.64452         0.16081
C         32.00046        31.03381         0.61416
C         33.08623        33.02296        -0.45607
C         31.85983        33.81175        -0.03522
C         33.11431        35.95064        -0.02128
C         31.84310        35.21237        -0.00648
C         33.11216        37.44809        -0.06553
C         31.80646        38.13939        -0.14693
C         33.02837        40.32663        -0.60351
C         31.77606        39.56883        -0.31406
C         33.03968        41.80239        -0.46674
C         31.74756        42.44350        -0.51785
C         33.51190        44.87036        -0.41637
C         31.59572        43.78112        -0.93473
C         33.34623        46.20091         0.01554
C         32.27032        47.02599        -0.46078
C         31.81652        48.23815        -0.01409
C         34.52546        20.85720         0.35668
C         35.71286        23.00104         0.07591
C         34.53545        22.27871         0.19832
C         35.72762        24.48015        -0.27132
C         34.54900        25.14334         0.49365
C         35.79878        27.35905         0.38302
C         34.45951        26.65448         0.18983
C         35.75668        28.86208         0.32779
C         34.46355        29.59033         0.32859
C         35.61733        31.63499        -0.50867
C         34.41641        30.93266         0.09118
C         35.60715        33.13230        -0.31012
C         34.39694        33.77148        -0.28592
C         35.62479        36.01089        -0.50255
C         34.34418        35.23230        -0.45620
C         35.58733        37.48201        -0.32511
C         34.38512        38.14362        -0.35439
C         35.59790        40.34449        -0.29587
C         34.35852        39.59602        -0.58907
C         35.50291        41.72816        -0.14120
C         34.28343        42.47883        -0.25497
C         34.38831        43.88671         0.05962
C         37.02595        25.25363        -0.08297
C         38.24079        27.43882        -0.02286
C         37.05114        26.63161         0.03228
C         38.22916        28.85404        -0.03246
C         36.98627        29.59174        -0.02598
C         38.14710        31.72978        -0.24134
C         36.93886        30.96640        -0.20558
C         38.11413        33.15151        -0.26406
C         36.86724        33.86905        -0.30924
C         38.09601        36.02913        -0.23194
C         36.87962        35.27088        -0.32555
C         38.05357        37.45024        -0.21539
C         36.85008        38.20223        -0.26636
C         36.81057        39.61193        -0.16909
C         39.42704        29.62537        -0.12133
C         40.61367        31.80504        -0.17159
C         39.40003        31.02404        -0.17335
C         40.58304        33.16974        -0.18254
C         39.33828        33.90069        -0.21359
C         39.31728        35.30198        -0.18226
O         33.69596        39.91461        -1.86604
O         28.23360        29.03593        -1.18463
O          9.02852        35.80042        -1.97939
O         20.28376        11.74422         0.60190
O         17.34596        48.48584         1.92724
O         21.45031        26.61236        -0.29667
O         21.44657        20.57304         3.63402
O         35.97637        28.12141         1.60144
O         31.47693        46.45784        -1.48874
O         17.75856        21.57537        -0.15320
O         21.19830        11.16299        -2.96538
O         32.68858        44.43271        -1.48659
O         14.32399        30.57417         2.31051
O         19.28023        37.92223        -1.28718
O         22.65915        42.26214         2.53388
O         16.59031        29.52617         2.27291
O         25.19382        53.12402         1.78447
O         17.52068        30.90744        -1.12858
O         26.18893        35.41615         2.19878
O         34.89060        35.64870        -1.74980
O         24.97247         7.54081        -1.42525
O         14.89372        24.44404         2.19291
O         21.30530        31.22657         1.92352
O         18.85765        50.98437         1.75599
O         10.35007        31.11538        -1.25584
O         15.18492        35.34329        -2.06540
O         27.04441        21.39462        -0.29164
O         25.60669        24.81196         2.84384
O         21.92091        47.47414         2.20601
O         31.86626        18.03613         1.88457
O         11.65116        27.17664        -1.10511
O         25.03061        50.62771         2.04907
O         16.35321        33.13610        -1.46325
O         33.11676        23.77616        -1.15241
O         20.14531        15.47915         2.83622
O         19.27257        21.80596         3.41243
O         31.33927        26.87204         2.32550
O         13.59629        24.15791        -1.12461
O         23.56824        19.25980         3.29816
O         20.25261        25.29575         2.79302
O         20.40351        40.84865         2.41808
O         17.83746        23.92275         2.82534
O         16.07509        39.50036         1.46051
O         33.28114        36.70857         1.22911
O         26.54145        15.65371         2.50584
O         16.51470        38.15190        -1.78644
O         27.92329        50.81603         1.67318
O         18.62036        18.35380         3.22524
O         30.57160        23.74226        -0.61463
O         26.51957        18.32242         2.96478
O         14.08199        33.88952         1.23846
O         26.43933        52.07620        -1.42130
O         29.03795        38.67991        -1.23327
O         15.69963        22.86952        -0.94302
O         29.21302        24.93055         2.32236
O         28.26712        32.70006         2.19379
H         28.09717        33.52863         2.69228
O         32.59178        28.74033        -0.86550
H         33.21090        28.23880        -1.44688
O          9.22598        29.82032         1.95432
H          9.16333        28.95705         2.41344
O         20.61648        50.11996        -1.36389
H         21.47552        49.76988        -1.68188
O         21.81364        13.65347        -2.14633
H         22.70979        13.95739        -2.40018
O         25.87471        55.51249         1.34390
H         25.48748        54.93964         2.05007
O         24.90431        27.46315         2.78735
H         25.34733        26.82779         3.39260
O         25.28486        23.25505        -0.46228
H         25.61243        22.47123        -0.96561
O         25.99620        11.41477         0.83880
H         25.31715        10.73760         1.07732
O         35.43057        31.45976        -1.97172
H         36.11121        32.00525        -2.42221
O         18.18004        15.56636        -0.84197
H         18.14758        14.89191        -1.55431
O         28.37985        31.83405        -1.36333
H         28.41472        30.91250        -1.73676
O         14.12792        26.77886         2.82095
H         14.65502        26.06203         3.24712
O         25.29041        26.80872        -0.79626
H         26.06316        26.83484        -1.40281
O         23.09743        24.63132         3.52724
H         23.91476        24.34023         3.98791
O         34.13483        26.75596        -1.21411
H         34.69667        26.09071        -1.70166
O         35.50788        24.56905        -1.72272
H         34.69697        24.02887        -1.91865
O         23.05851        57.74578        -3.69874
H         23.88488        57.23238        -3.82470
O         10.34891        35.98021         1.37073
H         10.96839        36.59268         1.82626
O         22.94447        44.53455        -1.15450
H         23.82045        44.74092        -1.54638
O         12.99663        41.74349         1.93743
H         12.90742        42.68517         2.19941
O         33.83792        27.43905         2.38946
H         33.12603        27.87318         2.91919
O         24.20909         9.41667         0.16605
H         24.69269         8.55671         0.20291
O         14.60189        40.04429        -1.87489
H         15.33874        39.49997        -2.25115
O         10.00193        33.41695        -2.06960
H          9.58334        34.06079        -2.68550
O         26.21575        42.07283        -1.31935
H         26.92889        42.24445        -1.96959
O         32.94864        32.82998        -1.89662
H         33.69954        32.24981        -2.18013
O         32.33171        29.70187         2.60860
H         31.57934        30.15149         3.04694
O         25.72929        31.64822        -1.46952
H         25.44479        30.74579        -1.76900
O         18.46327        44.55592        -1.38545
H         18.46487        43.62190        -1.68607
O         24.66856        35.48329        -1.13576
H         23.98215        34.98471        -1.62744
O         10.11478        33.31687         1.59977
H         10.14517        34.27363         1.85350
O         15.18136        15.74960         2.80324
H         15.90637        15.28933         3.27801
O         30.74702        48.70092        -2.13504
H         29.97358        49.12930        -2.55760
O         27.17859        38.23555         2.56955
H         26.34330        38.60754         2.95409
O         12.75435        36.06239        -2.24266
H         13.58193        36.04566        -2.78000
O         24.65660        39.52442         2.85659
H         24.85255        40.45592         3.11568
O         26.37346        13.32811        -2.25847
H         27.13319        13.81552        -2.64059
O         26.15421        41.97332         2.36779
H         26.00144        42.91737         2.58742
O         28.31839        22.64202         2.71735
H         28.88714        23.31942         3.15489
O         20.55354        57.84135         0.46182
H         20.55245        57.04093         1.02991
O         11.81484        39.32369         1.74512
H         12.13172        40.16038         2.17131
O         34.78441        24.93641         1.89435
H         34.53703        25.76190         2.38604
O         23.35568        15.09762         2.85335
H         23.51166        15.79834         3.52154
O         24.41331        29.29070        -1.34589
H         24.54879        28.32555        -1.53338
H          4.80089        31.15265        -0.23344
H          4.80031        33.59363        -0.50191
H          7.35421        26.83542        -0.23156
H          6.06292        28.99534        -0.18602
H          5.99675        35.73435        -0.60957
H          7.31434        38.02890        -0.34269
H          9.99167        22.54907        -0.19191
H          8.68108        24.68693        -0.15107
H          8.59748        40.16759        -0.59318
H          9.85009        42.26802        -0.44717
H         12.47386        18.29720        -0.07709
H         11.27710        20.40078        -0.16280
H         11.16216        44.35344        -0.67349
H         12.37949        46.51153        -0.44464
H         14.80422        13.98607         0.70795
H         13.59287        16.15202         0.46247
H         13.60060        48.63348        -0.43500
H         14.82613        50.78294        -0.38593
H         17.14223        10.30864        -1.37924
H         15.97377        12.21407        -0.36418
H         16.05936        52.88243        -0.55663
H         17.28635        54.96780        -0.96020
H         19.48538         6.57466        -3.63713
H         18.33072         8.41316        -2.49608
H         18.48775        57.03309        -1.38701
H         19.78872        59.27398        -1.74075
H         22.74576         3.70789        -5.66355
H         20.64005         4.73324        -4.81919
H         23.14011        62.16047        -3.40767
H         20.97480        61.07768        -2.90403
H         24.94753         4.75279        -5.18192
H         26.22769         6.71031        -4.35647
H         26.54686        58.99577        -2.21313
H         25.29366        61.02969        -2.88905
H         27.61536         8.53605        -3.19391
H         28.93100        10.25656        -2.06572
H         29.00559        54.95559        -1.12684
H         27.76001        56.92795        -1.76518
H         30.24001        12.22761        -1.32025
H         31.47531        14.21189        -0.79364
H         31.43990        50.88791        -0.83337
H         30.28782        52.98120        -0.52011
H         32.59894        16.19338        -0.83272
H         34.33706        18.35097        -0.33842
H         33.99535        46.58716         0.81368
H         32.31260        48.77999         0.80195
H         35.48770        20.33327         0.24583
H         36.67086        22.46351         0.15881
H         36.42215        42.29315         0.07682
H         35.24466        44.19722         0.67786
H         37.96857        24.71576        -0.27520
H         39.21129        26.92775        -0.12358
H         39.00770        37.99582        -0.15125
H         37.74776        40.16590        -0.00678
H         40.39854        29.10786        -0.11417
H         41.57707        31.27506        -0.14025
H         41.52226        33.74199        -0.16224
H         40.26867        35.85277        -0.13111
