         344
 CSIRO Nanostructure Databank - Neutral Graphene Oxide Data Set
C          1.48505         1.98987        -1.36082
C          1.41569         3.41228        -1.57493
C          2.66000         1.32017        -1.45192
C          2.56453         4.16929        -1.68696
C          1.29539         6.43331        -1.86480
C          1.31590         7.77581        -1.67381
C          2.53802         5.64376        -1.92286
C          2.53719         8.54827        -1.50351
C          1.31604        10.61044        -0.73504
C          1.32744        11.96047        -0.41802
C          2.47775         9.94596        -1.18206
C          2.51516        12.75516        -0.46097
C          1.32898        14.83960         0.26496
C          1.34113        16.18975         0.55843
C          2.51272        14.15962        -0.11836
C          2.54770        16.93539         0.51100
C          2.56181        18.32500         0.88855
C          3.91993         2.03667        -1.87815
C          3.85007         3.51712        -1.59343
C          5.16783         1.38699        -1.35972
C          5.00840         4.22193        -1.25833
C          3.81525         6.40969        -1.70973
C          3.77717         7.87822        -1.52085
C          4.94308         5.70796        -0.98637
C          5.02246         8.54951        -1.28518
C          3.69314        10.75323        -1.31987
C          3.72449        12.14326        -0.85621
C          5.04653        10.01163        -1.40045
C          4.96446        12.85682        -0.84974
C          3.73482        14.89871        -0.21661
C          3.74649        16.29690         0.12149
C          4.93751        14.25080        -0.59335
C          4.98904        17.03030         0.15892
C          3.72899        19.02819         0.93733
C          4.98393        18.40529         0.60390
C          6.25554         2.10651        -0.93638
C          6.21248         3.55346        -0.91859
C          7.45037         1.42481        -0.45049
C          7.33012         4.30622        -0.39076
C          6.28798         6.38272        -1.26949
C          6.22304         7.87607        -1.03135
C          7.36944         5.68325        -0.48158
C          7.45535         8.59652        -0.82759
C          6.28068        10.75140        -1.09291
C          6.22512        12.16466        -0.97354
C          7.47755        10.02195        -0.96876
C          7.46550        12.90060        -0.78228
C          6.16877        15.06717        -0.88739
C          6.19616        16.41320        -0.19128
C          7.44311        14.29365        -0.70744
C          7.43510        17.10804        -0.02928
C          6.17767        19.11537         0.68381
C          7.42377        18.49321         0.39872
C          8.46825         2.07815         0.16085
C          8.40993         3.55077         0.31013
C          9.62106         1.28809         0.76943
C          9.66815         4.29668         0.65418
C          8.45388         6.50975         0.17560
C          8.62205         7.90032        -0.41215
C          9.74414         5.70865         0.15428
C          9.87470         8.59302        -0.23872
C          8.79506        10.73588        -1.10043
C          8.71227        12.19100        -0.71094
C          9.95361        10.00023        -0.46770
C          9.91957        12.90873        -0.51232
C          8.71448        15.07791        -0.84220
C          8.67099        16.46356        -0.23770
C          9.93127        14.29458        -0.45763
C          9.89436        17.15367        -0.01774
C          8.62860        19.20626         0.49193
C          9.87641        18.57242         0.28711
C         10.94560         2.05791         0.89518
C         10.96214         3.55245         0.85207
C         12.22976         1.32654         0.52585
C         12.24391         4.29635         0.68733
C         11.05526         6.41852         0.18840
C         11.06265         7.89557         0.14620
C         12.24594         5.66636         0.62465
C         12.26556         8.58988         0.38742
C         11.15237        10.69615        -0.23044
C         11.24193        12.17229        -0.58687
C         12.28863         9.99871         0.21467
C         12.34523        12.92461         0.14313
C         11.23412        15.03898        -0.48720
C         11.13834        16.48063        -0.05662
C         12.34435        14.27512         0.18956
C         12.34133        17.18495         0.17745
C         11.09037        19.29011         0.33712
C         12.33520        18.62909         0.26114
C         13.49451         2.10702         0.81534
C         13.49510         3.54959         0.83259
C         14.69019         1.42386         0.86252
C         14.71306         4.23509         0.85258
C         13.48044         6.40781         1.08061
C         13.49204         7.88648         0.76979
C         14.72611         5.71402         0.54062
C         14.69749         8.53192         0.92894
C         13.47889        10.71680         0.79874
C         13.64125        12.17444         0.32742
C         14.79648         9.97914         0.52387
C         14.70915        12.88904         1.17446
C         13.47090        15.05742         0.83551
C         13.56473        16.48207         0.37081
C         14.79448        14.34145         0.82360
C         14.78977        17.16173         0.45456
C         13.57596        19.30748         0.30924
C         14.79806        18.60640         0.34677
C         15.95352         2.10234         0.93224
C         15.95921         3.54776         0.94117
C         17.15852         1.40098         0.90156
C         17.18685         4.25209         1.03754
C         15.98014         6.42581         0.98424
C         15.93444         7.79586         1.14320
C         17.21274         5.69781         1.11615
C         17.17512         8.51687         1.49624
C         15.98525        10.76102         1.05662
C         16.01048        12.13144         1.06512
C         17.20754        10.03547         1.43569
C         17.25718        12.86526         1.13750
C         15.99610        15.00534         0.83418
C         16.02373        16.45036         0.66637
C         17.25225        14.27543         1.01633
C         17.24378        17.14175         0.71722
C         16.04563        19.27711         0.37614
C         17.24947        18.57722         0.54465
C         18.41326         2.07998         0.88040
C         18.42849         3.53056         1.01195
C         19.61230         1.38457         0.73914
C         19.65004         4.21149         1.08474
C         18.42452         6.39285         1.28306
C         18.46163         7.81235         1.37095
C         19.68745         5.63295         1.58223
C         19.67738         8.53396         1.34913
C         18.49738        10.71996         1.31106
C         18.49359        12.14398         1.19487
C         19.69790         9.97820         1.32397
C         19.72515        12.85627         1.24295
C         18.48012        14.99142         1.08918
C         18.48569        16.44379         0.96870
C         19.69300        14.27215         1.23375
C         19.67615        17.17379         1.05333
C         18.49575        19.26300         0.54372
C         19.68786        18.58642         0.78017
C         20.86544         2.07473         0.63841
C         20.88602         3.52047         0.90203
C         22.01047         1.43872         0.20983
C         22.09388         4.21525         0.92573
C         20.93497         6.38993         1.20815
C         20.92596         7.80446         1.19644
C         22.12644         5.65842         0.97977
C         22.14112         8.51586         0.98418
C         20.94790        10.68930         1.23154
C         20.97526        12.11793         1.28972
C         22.16722         9.96943         1.04637
C         22.21887        12.79985         1.33999
C         20.92506        15.01029         1.56806
C         20.92529        16.51888         1.51184
C         22.23426        14.26390         1.59588
C         22.26235        17.29182         1.52634
C         20.94953        19.26481         0.65593
C         22.15902        18.63104         0.82793
C         23.23060         2.27026        -0.13888
C         23.36998         3.39442         0.94775
C         24.46186         1.44503        -0.47717
C         24.61339         4.22846         0.74739
C         23.32572         6.37305         0.71289
C         23.32450         7.77176         0.73147
C         24.55891         5.63793         0.22228
C         24.57651         8.48525         0.39024
C         23.37509        10.68684         0.90837
C         23.43780        12.09965         1.10653
C         24.59882         9.97461         0.50802
C         24.69503        12.79080         0.94426
C         23.51933        15.03587         1.41714
C         23.46383        16.47253         1.05263
C         24.83582        14.27664         1.24426
C         24.56970        17.11747         0.50757
C         23.36289        19.27141         0.41649
C         24.53550        18.55220         0.24598
C         25.68854         1.57422         0.09391
C         25.82132         3.61966         0.88492
C         26.98336         1.21447        -0.44292
C         27.09282         4.18833         0.49752
C         25.84600         6.39027         0.53053
C         25.85496         7.74072         0.52946
C         27.15098         5.66389         0.80104
C         27.14139         8.50065         0.79319
C         25.90039        10.67139         0.53571
C         25.87979        12.11200         0.57484
C         27.08411         9.96476         0.39706
C         27.08792        12.79405         0.20317
C         25.74856        14.89397         0.17304
C         25.76908        16.40150         0.13512
C         27.16841        14.30144         0.27173
C         26.85076        17.04365        -0.45648
C         25.70257        19.19086        -0.28748
C         26.82149        18.47830        -0.63376
C         28.10779         2.02593        -0.36444
C         28.16787         3.46105         0.00166
C         29.33068         1.39201        -0.81537
C         29.40905         4.19129        -0.29895
C         28.32958         6.39058         0.20425
C         28.33331         7.75474         0.22771
C         29.48832         5.60975        -0.20202
C         29.62437         8.52401         0.11563
C         28.27028        10.64798        -0.04523
C         28.20254        12.07882        -0.23904
C         29.44542         9.94818        -0.36825
C         29.28396        12.75230        -0.93499
C         28.07435        14.91072        -0.77162
C         27.98301        16.27974        -0.99373
C         29.16645        14.14042        -1.27706
C         28.97344        16.93572        -1.81326
C         28.02813        19.20759        -1.16827
C         28.94435        18.34449        -1.99917
C         30.50376         2.06250        -0.94537
C         30.56065         3.48403        -0.73838
C         31.76008         4.17413        -1.02404
C         30.67935         6.30357        -0.57212
C         30.70591         7.75083        -0.59419
C         31.81742         5.55234        -0.95680
C         31.72243         8.46238        -1.21024
C         30.52895        10.60623        -1.02239
C         30.39986        12.01294        -1.38161
C         31.66590         9.86093        -1.37344
C         31.36327        12.65997        -2.20143
C         30.12950        14.76038        -2.11864
C         30.00308        16.16860        -2.43340
C         31.22336        13.98078        -2.57498
C         30.90251        16.82194        -3.31193
C         29.84880        18.95312        -2.86327
C         30.80731        18.18430        -3.54470
O         17.04876         9.31649         2.72584
O          4.38347        10.52016        -2.59411
O         11.02441         2.80726         2.13416
O         24.45034         9.28981        -0.83318
O         20.71526        15.81607         2.78417
O         10.48944         5.82145        -1.08267
O          3.45491         5.97816        -3.04435
O          8.67043         4.06094         1.68862
O         25.82051         2.27502         1.32108
O         23.00295        14.71118         2.76954
O          9.81087         0.06718         0.05859
H         10.42455         0.22895        -0.69391
O         25.48924        14.36871         2.53820
H         24.77407        14.29223         3.21448
O          8.85795        15.34031        -2.31626
H          9.82806        15.41478        -2.49727
O         11.60376        12.19853        -2.01847
H         11.62832        13.15538        -2.27796
O         14.39284        12.87355         2.60304
H         13.73287        13.60019         2.76309
O         14.19673        12.20898        -1.01099
H         13.52689        11.82814        -1.62715
O         27.63970        20.38648        -1.88316
H         27.14454        20.11115        -2.68134
O         11.63002        15.08090        -1.93808
H         12.44875        15.62195        -1.99745
O          3.96618         1.89372        -3.35488
H          3.25430         2.46442        -3.71667
O          8.07467         6.71036         1.57246
H          8.09654         5.81772         2.00096
O         27.82627        14.66288         1.51088
H         27.22332        14.42742         2.25607
O         15.00296         9.90029        -0.92188
H         15.66612         9.20028        -1.09676
O          4.64063         5.88844         0.42288
H          5.40631         5.55950         0.94190
O         30.07271         8.65146         1.52055
H         29.27277         8.89921         2.04771
O         22.89510         2.96100        -1.37503
H         22.68982         2.28959        -2.05790
O         12.19434         1.05014        -0.89871
H         12.43816         1.86835        -1.38019
O         27.34201         5.75302         2.26941
H         28.18579         5.29908         2.48276
O         13.20145        10.62782         2.21338
H         13.77939        11.27245         2.69729
O         23.39511         2.77122         2.24832
H         24.26688         2.31890         2.33857
O         19.73276         5.52221         3.05795
H         18.91775         5.05528         3.34171
O          6.56920         6.20725        -2.68179
H          7.39469         6.69031        -2.89585
O          9.10679        10.73690        -2.54860
H          9.97896        11.19303        -2.64600
O         22.55011        17.60809         2.91486
H         22.31740        16.79672         3.42797
O         24.45919         5.56625        -1.23262
H         24.30470         6.47605        -1.56573
O         14.68129         5.81556        -0.91455
H         15.44560         5.31883        -1.27467
O         25.17351        14.47284        -1.09651
H         25.75327        14.80604        -1.81421
O         13.07051        15.16746         2.27204
H         13.63480        15.86120         2.67775
O          6.09000        15.37951        -2.33065
H          7.01660        15.50865        -2.65002
O         13.52866         6.27264         2.52816
H         12.87636         6.88904         2.92131
O         27.34254         8.52360         2.25035
H         27.32736         7.57409         2.54533
H          0.55441         1.45191        -1.12767
H          0.42680         3.89033        -1.59679
H          2.69437         0.22702        -1.33457
H          0.32783         5.91546        -1.94076
H          0.35874         8.31573        -1.64352
H          0.37309        10.05545        -0.63326
H          0.38399        12.42023        -0.09516
H          0.37785        14.29445         0.32946
H          0.41090        16.69604         0.85403
H          1.60967        18.80438         1.15933
H          5.21389         0.28722        -1.37095
H          3.73291        20.08395         1.24557
H          7.50540         0.33090        -0.55719
H          6.16535        20.17095         0.99386
H          9.30893         1.00979         1.81355
H          8.60481        20.27377         0.75714
H         12.26039         0.33399         1.03951
H         11.06501        20.38317         0.45968
H         14.68999         0.32505         0.80191
H         13.58698        20.40694         0.34804
H         17.14691         0.30163         0.85828
H         16.06976        20.37244         0.27725
H         19.59629         0.28958         0.63308
H         18.51218        20.34724         0.36058
H         21.96987         0.38047        -0.09192
H         20.93912        20.29796         0.27493
H         24.41825         0.94497        -1.45941
H         23.32334        20.32610         0.10383
H         27.09410         0.23930        -0.94432
H         25.68188        20.27813        -0.45408
H         29.28994         0.31505        -1.03585
H         28.62524        19.56656        -0.28109
H         31.41546         1.53979        -1.26837
H         32.64514         3.59874        -1.33118
H         32.76068         6.06045        -1.19590
H         32.58059         7.93626        -1.65190
H         32.51478        10.34975        -1.86902
H         32.23425        12.10247        -2.57054
H         31.99127        14.43050        -3.21842
H         31.68675        16.24883        -3.82420
H         29.81092        20.04290        -3.00102
H         31.50769        18.67330        -4.23601
