         429
 CSIRO Nanostructure Databank - Neutral Graphene Oxide Data Set
C          1.27470         3.51046        -1.37779
C          0.13657         4.09081        -0.90196
C          1.20291         6.30424        -0.74360
C          0.05740         5.49759        -0.67447
C          1.18224         7.73097        -0.41707
C         -0.02711         8.42618        -0.26224
C          1.14084        10.55185        -0.05325
C         -0.04659         9.80953        -0.08126
C          1.10930        12.03936        -0.05086
C         -0.11241        12.80369         0.31842
C          1.20361        14.79285         1.12940
C         -0.07013        14.06983         0.75857
C          1.20079        16.29916         0.93737
C          0.00772        17.02886         1.07705
C          1.20822        19.14811         0.91559
C          0.00680        18.41444         1.06838
C          1.21078        20.58946         0.92612
C          0.02213        21.33493         1.27721
C          1.10731        23.49477         0.79728
C         -0.02000        22.69124         1.28892
C          1.16209        24.95097         1.08354
C          0.01775        25.71031         1.23387
C          1.20032        27.86572         1.01128
C          0.03011        27.12558         1.22296
C          1.19752        29.27057         0.75995
C          0.03136        30.06063         0.87532
C          1.29243        32.16536         0.70761
C          0.05084        31.44457         0.78385
C          1.33856        33.63352         0.65136
C          0.13234        34.37916         0.48928
C          1.38403        36.42888         0.09092
C          0.15280        35.72611         0.21531
C          1.41200        37.81256        -0.22538
C          3.74716         3.66850        -1.82324
C          2.42805         4.37390        -1.81197
C          3.66852         6.36479        -0.84157
C          2.44233         5.70484        -1.10584
C          3.66455         7.75483        -0.39595
C          2.40886         8.45230        -0.30579
C          3.63964        10.57862         0.03901
C          2.38826         9.86761        -0.11683
C          3.66373        11.98485         0.19604
C          2.42077        12.76329         0.09685
C          3.65908        14.84304         0.59724
C          2.43901        14.15497         0.56118
C          3.67263        16.28253         0.67752
C          2.42276        16.99842         0.77993
C          3.65513        19.14790         0.51990
C          2.43015        18.43159         0.73701
C          3.62173        20.56259         0.46805
C          2.41362        21.27640         0.68006
C          3.69190        23.48987         0.57927
C          2.40268        22.75013         0.52089
C          3.70946        24.88918         0.77816
C          2.47252        25.61395         1.14653
C          3.74829        27.81677         0.71737
C          2.48992        27.14874         1.10693
C          3.74491        29.22694         0.50274
C          2.43922        29.95723         0.24579
C          3.76561        32.09261         0.68941
C          2.46503        31.42848         0.59817
C          3.83597        33.59508         0.74231
C          2.56447        34.32532         0.59525
C          3.84302        36.44211         0.22659
C          2.60777        35.72547         0.30225
C          3.83601        37.80472        -0.06519
C          2.61441        38.48242        -0.30698
C          6.20854         3.66610        -1.69563
C          4.92426         4.31432        -1.50083
C          6.14638         6.23604        -0.42963
C          4.88164         5.67161        -1.00881
C          6.13769         7.73727        -0.24734
C          4.87125         8.43299        -0.14661
C          6.08312        10.53914         0.36534
C          4.86638         9.85164         0.09790
C          6.08423        11.93274         0.50581
C          4.87579        12.67661         0.41247
C          6.11935        14.84068         0.52507
C          4.89587        14.11922         0.50543
C          6.11384        16.25264         0.44134
C          4.89611        16.97713         0.51037
C          6.12706        19.10392         0.26406
C          4.90425        18.42632         0.39890
C          6.15045        20.55688         0.04686
C          4.83547        21.32131         0.11519
C          6.13143        23.46197         0.31638
C          4.88928        22.77917         0.37157
C          6.11768        24.87732         0.40618
C          4.92735        25.60551         0.65709
C          6.17294        27.77810         0.43691
C          4.94127        27.07342         0.64339
C          6.18509        29.19828         0.31392
C          4.94577        29.90728         0.33155
C          6.26600        32.04941         0.44662
C          4.93685        31.39162         0.03950
C          6.27528        33.55635         0.25720
C          5.13080        34.26855         0.41795
C          6.34389        36.40892        -0.11799
C          5.16064        35.77545         0.57481
C          6.32206        37.78812        -0.41769
C          5.11955        38.59515         0.00478
C          8.67043         3.82146        -1.94400
C          7.40620         4.34143        -1.55003
C          8.63973         6.32877        -0.56365
C          7.37582         5.80727        -1.21466
C          8.60429         7.64173        -0.18231
C          7.34053         8.37642        -0.07600
C          8.55841        10.60016         0.03143
C          7.37275         9.75306         0.55200
C          8.62461        11.93699         0.72596
C          7.32566        12.67832         0.82093
C          8.60300        14.80313         0.69798
C          7.37503        14.13797         0.66732
C          8.65680        16.24407         0.49804
C          7.39558        16.93999         0.03941
C          8.58709        19.13523         0.29280
C          7.39058        18.42791         0.28937
C          8.63700        20.57584         0.23235
C          7.41678        21.29297         0.20303
C          8.63141        23.37585         0.20093
C          7.39079        22.71229         0.21178
C          8.64064        24.84078         0.07252
C          7.36480        25.61463         0.15011
C          8.61317        27.77040         0.17353
C          7.40740        27.08224         0.33325
C          8.62404        29.18028        -0.04178
C          7.40746        29.87012         0.01513
C          8.63212        32.01849        -0.67678
C          7.37759        31.32083        -0.27235
C          8.74494        33.48366        -0.45293
C          7.62823        34.25484         0.23890
C          8.70291        36.31768        -0.71077
C          7.53613        35.67645        -0.28051
C          8.68452        37.70202        -1.05205
C          7.46278        38.41461        -0.91584
C         11.06663         3.92049        -2.23089
C          9.90448         4.39946        -1.58315
C         11.12777         6.25132        -0.15598
C          9.86104         5.43145        -0.42167
C         11.11865         7.61806         0.19600
C          9.87642         8.38244        -0.01508
C         11.08851        10.54141         0.66218
C          9.89536         9.86226         0.10284
C         11.11566        11.92873         0.75150
C          9.88072        12.69270         0.66073
C         11.11390        14.79020         1.00270
C          9.84479        14.06620         0.81104
C         11.12895        16.29299         0.84354
C          9.83624        16.93820         0.50982
C         11.17019        19.11496         0.15670
C          9.86569        18.41440         0.43828
C         11.14315        20.56721        -0.17546
C          9.89243        21.25935         0.07308
C         11.08984        23.39707        -0.16558
C          9.86292        22.67670         0.07221
C         11.14226        24.80933        -0.02671
C          9.92106        25.54730         0.33612
C         11.12649        27.73391        -0.14636
C          9.90048        27.05183         0.28321
C         11.07973        29.11726        -0.47727
C          9.86358        29.86516        -0.39271
C         11.09766        31.89324        -1.10047
C          9.89155        31.22878        -0.75008
C         10.95146        33.33402        -1.58549
C          9.87635        34.11087        -0.84335
C         11.15020        36.26254        -1.30845
C         10.02039        35.59341        -0.57447
C         11.11701        37.67462        -1.55730
C          9.88222        38.36531        -1.43843
C         13.60876         4.16097        -2.33002
C         12.38319         4.07432        -1.70702
C         13.59573         6.32964        -0.17619
C         12.37403         5.62404        -0.17945
C         13.54182         7.63412         0.37485
C         12.30723         8.29350         0.54924
C         13.56606        10.45905         0.90172
C         12.27150         9.70990         1.11769
C         13.60420        11.91563         1.25886
C         12.34876        12.65821         0.92033
C         13.61528        14.76009         0.71461
C         12.37906        14.04406         0.87839
C         13.56890        16.18386         0.41700
C         12.40287        16.91348         0.41632
C         13.63975        19.02168        -0.32327
C         12.33363        18.24931        -0.30909
C         13.57142        20.42723        -0.83348
C         12.29641        21.23617        -0.60843
C         13.26835        23.53992        -1.13390
C         12.23391        22.69382        -0.65723
C         13.47848        24.87647        -0.74876
C         12.32543        25.54348        -0.22769
C         13.49406        27.61983        -0.74102
C         12.31325        26.98214        -0.26598
C         13.34778        28.90680        -1.24976
C         12.25506        29.75681        -0.97482
C         13.61133        31.88113        -1.19272
C         12.32472        31.18197        -1.18044
C         13.59068        33.33529        -1.46062
C         12.28727        34.06730        -1.65203
C         13.55131        36.21603        -1.75604
C         12.31535        35.54155        -1.55484
C         13.54688        37.63851        -1.95406
C         12.30917        38.32663        -1.95096
C         16.02109         4.21819        -2.21627
C         14.82581         4.69702        -1.71315
C         16.02387         6.49630        -0.45504
C         14.83219         5.80296        -0.73717
C         16.06805         7.64738         0.40574
C         14.80414         8.22849         0.82114
C         16.08436        10.44834         1.05029
C         14.80118         9.75556         1.14313
C         16.06059        11.86750         0.83772
C         14.87485        12.61297         0.83622
C         16.07046        14.76845         0.45365
C         14.83819        14.03554         0.62406
C         16.08038        16.14344         0.26469
C         14.80075        16.80479        -0.20365
C         16.12350        18.97524        -0.28634
C         14.82112        18.32403        -0.21273
C         16.18294        20.31031        -0.65974
C         14.98970        21.03470        -1.12221
C         16.07742        23.29804        -0.71504
C         15.15164        22.49038        -1.30382
C         16.11936        24.82961        -0.89085
C         14.76134        25.55632        -0.84157
C         16.02729        27.70969        -0.45288
C         14.78691        26.94707        -0.74533
C         16.05413        29.17359        -0.35463
C         15.14561        29.93413        -1.04259
C         15.99244        32.10001        -0.36920
C         14.85398        31.32768        -0.85659
C         15.96228        33.53177        -0.67220
C         14.80302        34.13285        -1.21503
C         16.00017        36.26464        -1.49187
C         14.78852        35.51794        -1.53989
C         16.00887        37.65852        -1.86208
C         14.78335        38.31466        -2.11665
C         18.56240         4.08656        -2.05093
C         17.31020         4.85668        -1.95765
C         18.53072         6.42271        -0.31640
C         17.30468         6.08684        -1.06255
C         18.50393         7.48808         0.62048
C         17.28082         8.29246         0.78124
C         18.51710        10.46427         1.39331
C         17.28652         9.69597         1.11729
C         18.56637        11.86058         1.12689
C         17.35773        12.53524         0.60000
C         18.57825        14.78310         0.79421
C         17.35631        14.03351         0.45477
C         18.55017        16.19401         0.72141
C         17.31283        16.88911         0.33078
C         18.68862        18.93726        -0.00413
C         17.33075        18.25551         0.07180
C         18.63926        20.44598         0.00875
C         17.43403        21.08892        -0.54088
C         18.46048        23.29305         0.25161
C         17.35506        22.59333        -0.44322
C         18.33075        24.77711         0.46543
C         16.99262        25.49547         0.21797
C         18.31421        27.70623         0.46339
C         17.14430        27.00090        -0.03059
C         18.25044        29.09617         0.81167
C         16.95577        29.91170         0.63168
C         18.07739        32.37217         0.86141
C         17.05450        31.45765         0.26686
C         18.17885        33.82425         0.36247
C         17.11828        34.32212        -0.51454
C         18.40195        36.40407        -0.89416
C         17.17739        35.65531        -0.99104
C         18.43591        37.73493        -1.42067
C         17.24447        38.34336        -1.88420
C         19.67904         4.49349        -1.40482
C         20.83920         5.89401         0.27381
C         19.69420         5.63788        -0.50696
C         20.80879         6.88306         1.25107
C         19.65434         7.66029         1.41625
C         20.79029        10.64392         2.31563
C         19.64321         9.89697         2.02648
C         20.83905        11.99095         1.98522
C         19.72544        12.62909         1.40054
C         20.89697        14.84212         1.47581
C         19.74363        14.08625         1.19339
C         20.87649        16.23216         1.41235
C         19.71768        16.92374         1.04390
C         20.95814        19.16213         0.99572
C         19.63275        18.43484         1.08979
C         21.00517        20.45036         0.61026
C         19.79067        21.17303         0.22608
C         20.89808        23.43452         0.31174
C         19.78492        22.63249         0.20420
C         20.79395        24.85451         0.40894
C         19.59406        25.53524         0.48557
C         20.63604        27.60290         1.28872
C         19.52153        26.97579         0.69836
C         20.51806        28.88923         1.78313
C         19.31459        29.58157         1.58495
C         20.39879        32.72154         1.73646
C         19.29437        31.93474         1.56981
C         20.51912        33.99357         1.09120
C         19.47432        34.54208         0.38664
C         20.75921        36.57482        -0.32336
C         19.56485        35.83607        -0.29659
C         20.80808        37.85752        -0.89519
C         19.66923        38.44540        -1.41809
O          2.64182        26.41511         2.37060
O         17.50539        13.14964        -0.72895
O         10.15484         9.25116        -1.22840
O          7.98081        12.10722         2.03571
O         12.40585         4.23557        -0.29837
O         18.17474        23.82530         1.59197
O         13.04680        33.61285        -2.82505
O         19.65028         8.57178         2.47917
O          1.52932        23.18548        -0.58335
O         14.74933         8.71130         2.19975
O          7.59705        31.66278        -1.67042
O         11.13227        15.68635         2.17563
O         14.16983        20.44487        -2.17172
O         14.39131        29.35111        -2.07351
O         10.74456        18.92092         1.53403
O         17.80421        21.94659        -1.69641
O          7.97646        25.27006        -1.16962
O          5.41498        20.94850        -1.17797
O         19.20490        30.76775         2.32127
O         17.55234        33.50474         1.66378
O          3.97549        32.77694         1.98396
O          1.75155        12.60960        -1.24601
O         17.39173         6.22929        -2.51626
O         14.14832        23.03988        -2.09393
O         10.00007        26.31365         1.57631
O          7.42897        16.81798        -1.43305
H          6.63706        17.27663        -1.78767
O         16.21943        25.41587         1.43806
H         16.68503        24.79408         2.04575
O          6.25074         5.65568         0.90373
H          5.59078         6.09176         1.48189
O         12.12944         9.56550         2.58687
H         12.92952         9.05874         2.87608
O          6.48726        31.79685         1.85150
H          5.71692        32.17770         2.34031
O         10.39216        35.71163         0.84536
H          9.65679        35.29357         1.36513
O         19.02304        18.78825         2.36219
H         19.62124        18.49420         3.07998
O          5.32296        38.97297         1.38537
H          5.43017        38.13748         1.89648
O          8.28124        10.92887        -1.34721
H          8.78401        10.28048        -1.89914
O         13.63964        11.91479         2.74514
H         12.92501        11.29385         3.03654
O         12.05443        17.91636        -1.69967
H         12.84070        17.42695        -2.04211
O         16.75466        25.10444        -2.15478
H         16.26017        24.63073        -2.85624
O         19.27665        18.55161        -1.27970
H         18.81963        19.05090        -1.98891
O         10.47109        33.23465        -2.95345
H         11.25600        33.03166        -3.51253
O          2.33728        29.93407        -1.24860
H          1.45079        30.28918        -1.47862
O          8.02899        34.39136         1.64655
H          7.31667        34.90655         2.09354
O          5.39356        36.01691         2.01782
H          4.66401        35.57656         2.50696
O          4.75375        31.55971        -1.38561
H          4.00330        30.97717        -1.65753
O          7.28216         6.49353        -2.50071
H          8.02623         6.18912        -3.06161
O         14.67971        16.46604        -1.64111
H         15.52461        16.71003        -2.07711
O          2.13947         4.69145        -3.24661
H          1.27877         5.16375        -3.25901
O          7.56290         9.49276         1.96528
H          7.60707        10.37122         2.42047
O          1.31667        14.59455         2.59575
H          2.08939        15.11541         2.90338
O         16.29047        29.91576         1.92219
H         16.89498        30.34430         2.56645
O          9.63623         4.63827         0.77794
H         10.40866         4.03841         0.86842
H          1.31740         2.42965        -1.57521
H         -0.74393         3.47310        -0.67188
H         -0.90074         5.91797        -0.34170
H         -0.98452         7.89237        -0.32969
H         -1.01662        10.31999        -0.00994
H         -1.09208        12.32970         0.15237
H         -1.02117        14.57152         0.99075
H         -0.94718        16.50354         1.21047
H         -0.95160        18.93730         1.17914
H         -0.85922        20.78540         1.63437
H         -0.90352        23.20425         1.69440
H         -0.96264        25.21275         1.25056
H         -0.94224        27.63583         1.24034
H         -0.92873        29.57491         1.10025
H         -0.89647        31.98710         0.89430
H         -0.83745        33.86903         0.55442
H         -0.78969        36.27472         0.07485
H          0.46413        38.34338        -0.39418
H          3.77579         2.64198        -2.21922
H          2.63723        39.55692        -0.53891
H          6.20962         2.61710        -2.02981
H          5.03829        39.53894        -0.58858
H          8.68901         2.89760        -2.54508
H          7.44304        39.49372        -1.12928
H         10.93582         3.38993        -3.18770
H          9.84753        39.44285        -1.65711
H         13.68244         3.88684        -3.39320
H         12.29223        39.40782        -2.15165
H         16.00884         3.32867        -2.86479
H         14.78440        39.39312        -2.33328
H         18.56161         3.15423        -2.63506
H         17.27398        39.39136        -2.21797
H         20.60559         3.90561        -1.48647
H         21.73971         5.27926         0.13544
H         21.67424         7.05725         1.90319
H         21.63874        10.15801         2.81393
H         21.74941        12.55401         2.22404
H         21.83550        14.35296         1.76482
H         21.79580        16.77823         1.66335
H         21.88235        18.66801         1.32872
H         21.96367        20.98900         0.60975
H         21.90594        22.99679         0.30110
H         21.73732        25.41783         0.41990
H         21.56171        27.04171         1.46705
H         21.32311        29.35660         2.36347
H         21.22485        32.35659         2.36005
H         21.47720        34.52272         1.17945
H         21.67732        36.15963         0.11360
H         21.76050        38.40588        -0.90104
H         19.70551        39.46285        -1.83249
