         324
 CSIRO Nanostructure Databank - Neutral Graphene Oxide Data Set
C          2.49812         4.16238        -3.41618
C          1.56376         4.98319        -4.04212
C          2.07468         6.80617        -2.49953
C          1.35575         6.29063        -3.59862
C          1.82566         8.13011        -1.96151
C          0.88611         9.02896        -2.53567
C          1.28763        10.71184        -0.82358
C          0.67299        10.30727        -2.03461
C          1.23053        12.09291        -0.30505
C          0.06902        12.84762        -0.55001
C          1.15134        14.91568         0.15424
C          0.00708        14.20569        -0.26465
C          1.11581        16.36062         0.32073
C         -0.09095        17.08883         0.28131
C          1.07162        19.23056         0.48703
C         -0.11647        18.47493         0.38662
C          1.06178        20.68141         0.54055
C         -0.15538        21.43007         0.54660
C          1.04574        23.57083         0.62396
C         -0.16449        22.80326         0.59437
C          1.04363        24.97555         0.73435
C         -0.14039        25.78844         0.90297
C          1.09268        27.90383         0.37327
C         -0.12929        27.14907         0.83197
C          1.18018        29.36571         0.74966
C          4.26663         3.81028        -1.74895
C          3.25881         4.63899        -2.32470
C          3.83057         6.48838        -0.77273
C          3.04002         5.97973        -1.85094
C          3.67146         7.80115        -0.27523
C          2.53145         8.54486        -0.79624
C          3.65808        10.67609         0.77394
C          2.07046         9.73716        -0.19237
C          3.60618        12.07406         0.56214
C          2.36978        12.76380         0.25812
C          3.58854        14.91057         0.64576
C          2.36446        14.19273         0.36299
C          3.56912        16.36438         0.64570
C          2.33565        17.07995         0.49920
C          3.54049        19.23615         0.58209
C          2.31239        18.51423         0.52694
C          3.52863        20.69130         0.55998
C          2.28358        21.40479         0.55931
C          3.52751        23.54133         0.40899
C          2.29941        22.84342         0.55049
C          3.57999        24.97445         0.51340
C          2.33444        25.67711         0.85701
C          3.63364        27.86992         0.54447
C          2.35568        27.18841         0.79180
C          3.65300        29.31732         0.61790
C          2.37211        30.00354         0.78497
C          6.20852         3.51700        -0.26756
C          5.09655         4.26336        -0.72119
C          5.94844         6.27110         0.63729
C          4.82466         5.60284        -0.15719
C          5.96533         7.73116         0.68279
C          4.78193         8.44211         0.44339
C          6.03392        10.62891         0.65923
C          4.81764         9.90121         0.62967
C          6.04594        12.02464         0.76564
C          4.83748        12.78108         0.67802
C          6.05142        14.92297         1.13467
C          4.80422        14.21016         0.78416
C          6.05332        16.42540         1.05127
C          4.77149        17.10774         0.74060
C          6.03151        19.28039         0.84111
C          4.75095        18.51098         0.65239
C          5.94496        20.61901         0.14279
C          4.72640        21.40770         0.41398
C          5.96338        23.50328        -0.10566
C          4.75259        22.81674         0.21831
C          5.95383        24.98307        -0.21032
C          4.75950        25.69276         0.31358
C          6.10207        27.82046         0.54274
C          4.79597        27.12782         0.42253
C          6.12923        29.30923         0.65459
C          4.85483        29.99626         0.65468
C          8.47229         3.37439         0.64607
C          7.27338         4.07652         0.48466
C          8.52148         6.23888         1.03738
C          7.20493         5.49729         0.90224
C          8.55910         7.67714         0.67845
C          7.27423         8.41107         0.90011
C          8.52219        10.56757         0.23480
C          7.30911         9.89523         0.79028
C          8.59129        12.02217         0.48769
C          7.36134        12.69209         0.95081
C          8.59537        14.90564         0.65033
C          7.37310        14.19754         1.08065
C          8.55434        16.36248         0.56830
C          7.33814        17.10865         0.78123
C          8.47351        19.22879         0.32106
C          7.30391        18.50989         0.55858
C          8.46112        20.51564        -0.48539
C          7.17133        21.32293        -0.33116
C          8.41869        23.49503        -0.26018
C          7.18734        22.80348        -0.24630
C          8.48230        24.88084        -0.47736
C          7.25477        25.72716        -0.45724
C          8.60458        27.97710         0.10674
C          7.37256        27.12868         0.13338
C          8.64318        29.24400         0.94917
C          7.31921        29.97476         0.78843
C         10.92018         3.28499         0.87199
C          9.72264         4.00939         0.96189
C         10.96112         6.14694         0.91585
C          9.76646         5.44953         1.02276
C         10.95976         7.47549         0.35660
C          9.73511         8.28170         0.27133
C         11.00778        10.61364        -0.14090
C          9.76073         9.76898        -0.08983
C         11.02286        12.00796         0.10840
C          9.77836        12.72660         0.38973
C         11.01313        14.86204         0.03561
C          9.76320        14.17841         0.43274
C         10.99365        16.36260        -0.00747
C          9.74758        17.06034         0.36471
C         11.03146        19.27067         0.27815
C          9.74773        18.52117         0.45717
C         11.02956        20.68788        -0.17312
C          9.73786        21.36141        -0.40510
C         11.00177        23.53022        -0.06034
C          9.69254        22.77620         0.11444
C         10.98964        24.89077        -0.33229
C          9.74458        25.43936        -0.73213
C         11.09482        28.05866        -0.09488
C          9.77132        27.58852        -0.46437
C         11.09151        29.48904         0.24195
C          9.86364        30.07496         0.59318
C         13.48395         3.16632         0.75447
C         12.20561         3.89367         1.14477
C         13.50393         6.12869         0.79334
C         12.24135         5.46244         1.12904
C         13.46710         7.39465         0.21848
C         12.18261         7.88147        -0.16984
C         13.49765        10.57050        -0.24581
C         12.23165        10.03031        -0.51157
C         13.49999        11.96447        -0.03667
C         12.28154        12.68983         0.05237
C         13.50545        14.83243         0.20646
C         12.31842        14.14287         0.13260
C         13.56455        16.31029         0.32869
C         12.29397        17.09544         0.17458
C         13.27865        19.32031        -0.56869
C         12.24981        18.55401        -0.10488
C         13.47375        20.72942        -0.26172
C         12.28829        21.45279         0.01129
C         13.51377        23.56410        -0.11534
C         12.26655        22.85245         0.03056
C         13.51513        24.98849        -0.15144
C         12.19611        25.71767         0.10916
C         13.52396        27.87167         0.17070
C         12.20950        27.23999        -0.11293
C         13.56722        29.41716         0.20887
C         12.31618        30.17567         0.15727
C         15.94269         3.27425         1.04171
C         14.76020         3.95802         1.00929
C         15.93560         6.13601         0.91681
C         14.75466         5.41509         0.97808
C         15.91495         7.60955         0.71840
C         14.71086         8.22176         0.03887
C         16.02065        10.48929         0.11799
C         14.75226         9.74185        -0.20776
C         16.04248        11.88692         0.13550
C         14.79919        12.65768        -0.09858
C         16.06203        14.77545         0.60623
C         14.81012        14.14632         0.06430
C         16.08110        16.26974         0.85090
C         14.90801        16.96584         0.27582
C         16.09938        19.17870         0.15706
C         15.10779        18.19980        -0.26909
C         16.01707        20.63731        -0.21316
C         14.73923        21.36846        -0.21888
C         15.97238        23.53132        -0.20571
C         14.74132        22.81246        -0.17115
C         15.96224        24.92814        -0.24461
C         14.74255        25.67963        -0.19868
C         15.96861        27.84665        -0.22543
C         14.78036        27.13834        -0.13136
C         15.96612        29.29165        -0.39333
C         14.81755        30.03040        -0.22717
C         18.49793         3.28515         0.98169
C         17.21986         3.94991         1.28890
C         18.47700         6.19514         0.92602
C         17.21359         5.49563         1.22777
C         18.49551         7.60008         0.78316
C         17.21484         8.36210         0.76973
C         18.46610        10.46842         0.35835
C         17.25103         9.78728         0.34085
C         18.50062        11.89021         0.21252
C         17.27649        12.61202         0.23247
C         18.55089        14.71700         0.30311
C         17.32833        14.04027         0.36474
C         18.63927        16.19878         0.48395
C         17.41030        16.99320         0.80330
C         18.61375        19.18425         0.16668
C         17.41076        18.49547         0.58971
C         18.47710        20.55158        -0.34905
C         17.20985        21.31693        -0.21349
C         18.49558        23.49219        -0.55364
C         17.28460        22.80498         0.04883
C         18.47479        24.89423        -0.66721
C         17.26494        25.63909        -0.21593
C         18.57137        27.88795        -0.56735
C         17.27705        27.13987        -0.20531
C         18.31305        29.24730        -1.18261
C         17.14907        29.92098        -0.94643
C         19.64410         3.99438         0.84755
C         20.89239         6.13656         0.67402
C         19.67652         5.44764         0.84808
C         20.91394         7.52505         0.60871
C         19.72382         8.27382         0.63991
C         20.93204        10.44847         0.05169
C         19.76446         9.78536         0.74651
C         20.93304        11.78047        -0.16150
C         19.74640        12.58996         0.08509
C         21.01752        14.75255        -0.00168
C         19.77175        13.99854         0.10558
C         21.06777        16.10095        -0.10489
C         19.82320        16.90858        -0.12917
C         21.04792        19.23154        -0.32986
C         19.80629        18.41758        -0.25592
C         21.00871        20.57104        -0.48643
C         19.73230        21.28649        -0.74895
C         20.78951        23.48027        -1.34386
C         19.67524        22.77677        -0.85867
C         20.74364        24.85794        -1.52274
C         19.59027        25.59634        -1.18852
C         20.43702        27.68175        -2.20915
C         19.53969        27.04647        -1.39298
C         20.40138        29.10230        -2.42741
C         19.37714        29.85952        -1.94071
O         17.23444         4.76766         2.49696
O         17.45993        26.38080         1.04843
O          7.71752         5.86097         2.21713
O         12.16038         8.82255        -1.19291
O          5.96413        15.73687         2.35778
O          2.34916        26.51972         2.08225
O          4.80260         5.65669         1.30245
O          2.47781        10.01124         1.12161
O         13.63462        28.58264         1.44551
O         14.27620        18.65729        -1.29108
O          8.80342        10.13321        -1.14599
O         10.57928        21.04460        -1.54108
O          7.54924        13.34398         2.25698
O          9.75554        26.61458        -1.47178
O         12.82999        16.81696         1.52127
O         18.34243        16.61924         1.86091
O         14.95861         8.76692        -1.29020
O          7.41676         9.26674         2.10892
O          6.92513        27.10637         1.55521
O          6.33442        25.53192        -1.55831
O         16.35033         8.26452         1.96717
O         16.50534        19.10404         1.56523
O         18.93963        20.63558        -1.79653
O         14.95831        13.55823        -1.26987
O         10.56533        19.07464         1.64598
O         12.30340         4.67373         2.36109
O         15.88109        15.34586         1.94587
O          6.19759        20.74498        -1.29468
O         19.54159        17.51302        -1.43816
O         10.88460        15.59279        -1.25283
O          8.78123        28.90814         2.36246
H          8.08555        28.23058         2.54839
O         13.53944         1.90573         1.43062
H         13.51822         2.08219         2.39428
O         19.94661        10.04273         2.17838
H         19.91013        11.01338         2.31374
O          9.57597        22.58645         1.57005
H          9.72531        23.45157         2.00860
O          1.09437        27.85135        -1.09347
H          0.30933        28.34284        -1.41378
O          6.10251        19.63362         2.25780
H          6.16518        18.80205         2.77507
O          8.47946        19.96555        -1.83059
H          7.53764        19.86364        -2.11134
O         17.50582        22.88098         1.49968
H         16.72734        22.48737         1.94874
O         19.26723        28.16825         0.67898
H         19.00770        27.45388         1.30854
O         12.05091        25.65860         1.57944
H         12.69668        26.28681         1.97345
H          2.66106         3.13633        -3.77554
H          0.98349         4.60046        -4.89315
H          0.60954         6.91227        -4.11096
H          0.35137         8.73481        -3.44871
H          0.01918        11.00231        -2.58010
H         -0.81797        12.34656        -0.96234
H         -0.93776        14.73570        -0.44274
H         -1.04848        16.56052         0.18084
H         -1.09203        18.97868         0.36460
H         -1.11872        20.90262         0.52890
H         -1.13050        23.32633         0.61593
H         -1.09470        25.28376         1.11789
H         -1.06443        27.70847         0.99094
H          0.24717        29.93224         0.89759
H          4.43522         2.81103        -2.17777
H          2.40499        31.08605         0.98463
H          6.33673         2.49517        -0.65710
H          4.85796        31.09107         0.76840
H          8.49637         2.30873         0.37068
H          7.30909        31.07148         0.89185
H         10.89997         2.24666         0.51002
H          9.85373        31.13929         0.87508
H         13.42967         2.93462        -0.34573
H         12.35129        31.27386         0.20292
H         15.93965         2.18453         0.88673
H         14.81296        31.09836        -0.49171
H         18.50155         2.19146         0.86153
H         17.05039        30.96285        -1.29014
H         20.59173         3.46935         0.65520
H         21.83309         5.56982         0.62532
H         21.88391         8.03558         0.54083
H         21.83932         9.86812        -0.16782
H         21.82773        12.26360        -0.57974
H         21.96120        14.18915        -0.01759
H         22.03638        16.60500        -0.23640
H         22.01759        18.72718        -0.20197
H         21.94361        21.15053        -0.45934
H         21.70929        22.93586        -1.59868
H         21.63561        25.37172        -1.90468
H         21.19981        27.10585        -2.75299
H         21.18480        29.55832        -3.04839
H         19.30053        30.92865        -2.18830
