         478
 CSIRO Nanostructure Databank - Neutral Graphene Oxide Data Set
C         37.56417        49.84265         0.75865
C         36.37319        50.42926         1.17266
C         37.53759        52.50387         1.56297
C         36.35745        51.76475         1.58462
C         40.07561        48.52546         0.10504
C         40.04225        49.91333         0.37975
C         38.77585        50.56834         0.73627
C         39.97521        52.76110         1.04029
C         38.74720        51.92766         1.13977
C         40.10507        53.98105         1.84738
C         42.49635        48.53998        -0.13613
C         41.25806        47.86058        -0.16701
C         42.48501        49.92613         0.17402
C         41.27142        50.62230         0.37641
C         42.54589        52.78150         0.95307
C         41.28328        52.09541         0.59442
C         42.54265        54.01603         1.56473
C         41.30275        54.59417         2.02880
C         44.97045        46.02208        -1.49979
C         43.76098        46.68648        -1.23639
C         45.01426        48.42349        -0.04881
C         43.73410        47.85854        -0.48601
C         45.03610        49.92076         0.31432
C         43.76443        50.66776         0.13933
C         45.10539        52.67544         0.96687
C         43.81065        52.13328         0.55721
C         45.13273        53.92624         1.74228
C         43.82749        54.65731         1.98591
C         45.06406        56.81194         2.15905
C         43.90274        56.12826         2.10965
C         47.55338        44.55192        -2.03682
C         47.44989        45.74925        -1.19408
C         46.20997        46.55098        -1.10515
C         47.51440        48.53995        -0.33246
C         46.27996        47.81613        -0.46844
C         47.50184        49.96367        -0.05314
C         46.30289        50.65368         0.20964
C         47.54949        52.76786         0.57798
C         46.29532        52.04516         0.57483
C         47.59489        54.13037         1.06705
C         46.43068        54.67681         1.79803
C         47.59610        56.97924         1.73607
C         46.39813        56.17517         2.09043
C         47.60229        58.37819         1.83158
C         50.00487        44.52150        -1.81494
C         48.74657        43.94515        -2.25218
C         50.01312        45.80616        -1.28588
C         48.77169        46.45731        -0.85541
C         49.97550        48.65670        -0.71947
C         48.75154        47.91249        -0.61660
C         49.94693        50.08027        -0.52102
C         48.72818        50.71274        -0.16291
C         49.88846        52.91688        -0.22438
C         48.69371        52.12430         0.08226
C         49.90612        54.36311         0.24698
C         48.75028        54.89814         0.98901
C         49.98311        57.06007         1.16474
C         48.78876        56.30362         1.35702
C         49.96068        58.47344         1.25930
C         48.76012        59.11752         1.57207
C         52.48246        41.72953        -2.48787
C         51.30933        42.43468        -2.40149
C         52.47160        44.53349        -1.85949
C         51.25665        43.80156        -1.98385
C         52.47024        45.89598        -1.56741
C         51.28331        46.49399        -0.87556
C         52.42457        48.74780        -1.09842
C         51.21153        48.00097        -0.97153
C         52.39509        50.16119        -0.97585
C         51.17847        50.84176        -0.65201
C         52.35643        53.07447        -0.77892
C         51.16363        52.23852        -0.49858
C         52.36809        54.51501        -0.35964
C         51.26786        54.91586         0.61048
C         52.44798        57.02633         1.04704
C         51.24323        56.39104         0.87488
C         52.40821        58.43509         1.50628
C         51.24951        59.21635         0.91444
C         52.51504        61.24998         1.56494
C         51.32506        60.66391         1.31617
C         55.07558        40.20179        -2.11843
C         55.04341        41.60437        -2.07685
C         53.73473        42.29385        -1.98402
C         55.04454        44.50749        -1.89524
C         53.75962        43.80654        -1.79326
C         55.01242        45.97515        -2.03891
C         53.66008        46.69571        -1.80105
C         54.91889        48.79116        -1.29778
C         53.67379        48.10050        -1.39753
C         54.91994        50.16994        -1.09340
C         53.65288        50.90895        -1.17894
C         54.93445        53.13844        -0.72953
C         53.66764        52.40887        -1.07484
C         54.91356        54.47784        -0.40387
C         53.66577        55.33521        -0.37054
C         54.91265        57.00107         1.09119
C         53.72007        56.42745         0.69572
C         54.91833        58.15532         2.10426
C         53.68077        59.07094         1.96158
C         54.98917        61.14033         1.48780
C         53.77546        60.52036         1.68255
C         55.00525        62.43743         0.83338
C         57.40504        40.21984        -1.44200
C         56.23209        39.51527        -1.77254
C         57.44038        41.62313        -1.60923
C         56.24062        42.33392        -1.84076
C         57.51302        44.49847        -1.85848
C         56.24744        43.80292        -1.82904
C         57.53576        46.01514        -2.06247
C         56.24243        46.72983        -1.73980
C         57.42565        48.80924        -1.14414
C         56.19744        48.06429        -1.38761
C         57.43889        50.18147        -0.97362
C         56.15111        50.88864        -0.62944
C         57.41370        53.02977        -0.68598
C         56.17607        52.38458        -0.80124
C         57.40840        54.41058        -0.30272
C         56.18467        55.28206        -0.33290
C         57.37003        56.87587         1.21192
C         56.18233        56.39681         0.72165
C         57.48215        57.97365         2.25624
C         56.25681        58.96800         2.15992
C         57.49125        61.34846         1.71273
C         56.26649        60.49585         1.93393
C         57.37013        62.77780         1.32120
C         56.10827        63.20453         0.69735
C         59.59008        37.56942         0.14994
C         58.46908        38.22162        -0.33338
C         59.83345        40.12006        -0.98213
C         58.57230        39.50944        -0.90944
C         59.94118        41.46202        -1.53824
C         58.72753        42.36623        -1.31981
C         59.95326        44.57468        -1.78882
C         58.72626        43.80776        -1.84624
C         59.91603        45.96153        -1.38430
C         58.72287        46.64914        -1.39419
C         59.95672        48.79835        -1.07355
C         58.67774        48.03385        -0.82284
C         59.92633        50.18745        -1.08016
C         58.68520        50.91364        -0.91588
C         59.93146        53.08206        -0.82538
C         58.69073        52.31922        -0.78773
C         59.82281        54.45687        -0.49683
C         58.60402        55.01960        -0.00694
C         59.94760        56.98869         0.94236
C         58.64284        56.23137         0.82972
C         59.90629        58.39495         1.42208
C         58.81092        58.70672         2.15987
C         59.98505        61.56250         1.73270
C         58.73929        60.96075         2.13453
C         59.95585        62.93987         1.36652
C         58.64332        63.61792         1.22509
C         59.84668        65.55395         0.29581
C         58.67695        64.91094         0.51434
C         62.01113        36.18574         1.10490
C         62.07923        37.42612         0.41871
C         60.88625        38.12393        -0.00245
C         62.30639        39.94626        -0.88914
C         61.01041        39.39559        -0.63282
C         62.45104        41.09725        -1.85199
C         61.15535        41.80484        -2.04127
C         62.41443        44.46355        -1.34539
C         61.22249        44.00834        -1.96657
C         62.36834        45.86027        -0.97751
C         61.16989        46.61167        -1.07707
C         62.42829        48.69815        -0.90009
C         61.19247        48.04393        -1.03331
C         62.49731        50.15065        -1.12009
C         61.17412        50.95555        -1.25345
C         62.50387        53.00041        -0.89282
C         61.21282        52.41094        -1.01798
C         62.72523        54.41210        -0.98137
C         60.86780        55.42411        -0.68905
C         62.37225        57.18736         0.29453
C         61.05017        56.55411         0.06391
C         62.35638        58.58665         0.85244
C         61.02421        59.33726         0.94082
C         62.38308        61.46133         1.31806
C         61.16303        60.77188         1.49393
C         62.42402        62.95885         1.57916
C         61.14510        63.63167         1.12820
C         62.31592        65.74082         0.60104
C         61.13113        64.98888         0.68482
C         62.31799        67.13449         0.29289
C         64.44037        36.03301         1.21373
C         63.14919        35.52203         1.51193
C         64.52544        37.26099         0.53150
C         63.36094        37.99111         0.16313
C         64.71028        40.02442        -0.50328
C         63.45545        39.28619        -0.47670
C         64.76583        41.38660        -0.70788
C         63.75244        42.16519        -1.55036
C         64.74546        44.31165        -0.63068
C         63.59102        43.65829        -1.11650
C         64.77221        45.75777        -0.45717
C         63.58599        46.52188        -0.65408
C         64.83502        48.60471        -0.31636
C         63.61257        47.94812        -0.60540
C         64.91650        50.07121        -0.47708
C         63.69777        50.86341        -0.68840
C         64.91957        52.96749        -0.18498
C         63.71269        52.24763        -0.60205
C         64.92923        54.38640        -0.03477
C         63.75442        55.12279        -0.39412
C         64.90256        57.22144         0.36389
C         63.68306        56.64533        -0.34207
C         64.83863        58.59611         0.99836
C         63.61127        59.38147         0.54161
C         64.83304        61.49494         0.95312
C         63.60805        60.80584         1.03815
C         64.83105        62.94276         0.91619
C         63.65962        63.63535         1.03354
C         64.77870        65.73225         0.12034
C         63.65675        65.14439         0.97054
C         64.70436        67.05404        -0.23764
C         63.48372        67.79681        -0.00448
C         66.74484        33.33837         2.50919
C         65.59468        34.03085         2.15733
C         66.94356        35.88739         1.34330
C         65.65665        35.30922         1.57190
C         67.06343        37.15273         0.68965
C         65.85042        37.77208         0.14592
C         67.24447        39.88270        -0.14551
C         65.94575        39.23605        -0.29294
C         67.26090        41.34932        -0.00619
C         65.97585        42.11255        -0.26841
C         67.14665        44.23503         0.00300
C         65.99710        43.59500        -0.37317
C         67.14426        45.68912         0.43375
C         65.94941        46.44838        -0.07345
C         67.18712        48.55154         0.56749
C         65.97976        47.85610         0.01369
C         67.23542        50.05190         0.61703
C         66.14861        50.80313        -0.06647
C         67.31510        52.92772         0.43163
C         66.10704        52.26421         0.11365
C         67.32980        54.34354         0.42414
C         66.14080        55.07891         0.24537
C         67.33233        57.25725         0.72069
C         66.10627        56.53622         0.42028
C         67.34700        58.65306         0.88420
C         66.11288        59.38091         0.84620
C         67.33619        61.48607         0.67647
C         66.08163        60.77074         0.85180
C         67.30748        62.84232         0.40440
C         66.11825        63.70895         0.71826
C         67.22286        65.57501        -0.57642
C         65.92089        64.83030        -0.32522
C         67.13999        66.93100        -1.13907
C         65.82109        67.71144        -0.97982
C         67.09720        69.76855        -1.42969
C         65.94329        69.16554        -1.01419
C         69.17163        31.84997         3.20281
C         69.23093        33.16366         2.68156
C         68.02787        33.88997         2.30981
C         69.41058        35.80768         1.54551
C         68.12704        35.18623         1.72885
C         69.50193        37.11136         0.97173
C         68.31648        37.77166         0.49672
C         69.72251        39.79546        -0.26553
C         68.39196        39.14457         0.04150
C         69.73555        41.32562        -0.12795
C         68.57516        42.04089        -0.03712
C         69.38841        44.39579        -0.66339
C         68.48484        43.53423         0.23802
C         69.62287        45.76733        -0.09931
C         68.46296        46.42254         0.23382
C         69.67876        48.51553         0.66548
C         68.49282        47.84159         0.54183
C         69.72217        49.96577         0.98640
C         68.51415        50.78390         0.76702
C         69.81763        52.88123         0.78766
C         68.54871        52.16223         0.65875
C         69.84756        54.29904         0.78429
C         68.62254        55.05187         0.45729
C         69.84313        57.21802         1.08318
C         68.62468        56.55831         0.56940
C         69.78828        58.60010         1.40166
C         68.58751        59.38253         1.06965
C         69.80396        61.58863         0.86554
C         68.59285        60.76338         0.84718
C         69.81522        62.80804         0.01614
C         68.49107        63.50921        -0.14772
C         69.68684        65.65117        -0.77733
C         68.43986        64.95852        -0.46208
C         69.64675        67.00246        -1.22949
C         68.38128        67.68782        -1.36290
C         69.56909        69.84677        -1.91759
C         68.31379        69.04668        -1.64846
C         69.38211        70.92308        -2.95429
C         71.57864        31.77429         3.40012
C         70.32373        31.16426         3.55748
C         71.66422        33.06025         2.89131
C         70.50259        33.78389         2.52120
C         71.82938        35.80273         1.89130
C         70.58657        35.12674         1.98353
C         71.91552        37.08817         1.40843
C         70.76986        37.78949         0.92493
C         72.13447        39.80023         0.44051
C         70.87831        39.12265         0.45042
C         72.27149        41.07092        -0.01807
C         71.11560        41.93061        -0.45558
C         72.00491        44.28578        -0.63984
C         71.40568        43.31024         0.10636
C         72.07272        45.67470        -0.17871
C         70.93219        46.38576         0.06480
C         72.13768        48.60567         0.18257
C         70.99901        47.76049         0.71765
C         72.18530        49.93577         0.35295
C         71.05197        50.68730         0.93754
C         72.24617        52.88607         0.97036
C         71.03988        52.17190         0.87488
C         72.25060        54.27090         1.08216
C         71.04880        55.00723         1.01589
C         72.14886        57.09071         1.84061
C         71.02416        56.45648         1.27486
C         72.07803        58.41366         2.26687
C         70.90402        59.14692         2.07191
C         71.86462        62.45458         1.93142
C         70.83304        61.44922         1.76564
C         71.97700        63.49594         1.07980
C         71.12171        63.56679        -0.16449
C         72.11290        65.68039        -1.00602
C         70.93675        65.00139        -0.64042
C         72.07853        66.97631        -1.49664
C         70.85216        67.67386        -1.61172
C         71.84941        69.54504        -2.91502
C         70.78773        68.99595        -2.17377
C         71.70114        70.72590        -3.63566
C         70.42996        71.37071        -3.70125
O         61.78094        55.14038        -1.70594
O         69.49590        44.12377        -1.86023
O         52.00159        54.18643        -1.71769
O         54.23189        46.46966        -3.15605
O         66.39103        41.74273         1.12261
O         66.15481        67.02704        -2.23568
O         53.65952        42.88813        -0.63681
O         62.50401        57.46255         1.73750
O         59.56161        56.02676         1.97649
O         40.45935        52.86624        -0.33962
O         65.98845        50.41405        -1.47646
O         44.99389        48.90719         1.35049
O         65.97386        38.13106        -1.26811
O         43.82139        51.70440        -0.87414
O         46.71572        55.19017         3.13034
O         66.86165        49.28092         1.80997
O         52.62581        58.69122         2.91827
O         70.84928        60.41098         2.70091
O         48.05565        45.63478         0.13562
O         70.51435        50.20434         2.22311
O         56.17504        59.89188         3.28155
O         69.10531        62.69867        -1.24517
O         49.61004        54.06802        -1.13348
O         53.67305        51.81372        -2.40897
O         58.83458        59.84274         2.95878
O         61.96105        50.55738        -2.42062
O         57.80433        63.66283         2.43441
O         44.46747        53.87077         3.05146
O         68.79844        55.90761        -0.74322
O         61.30040        42.93003        -2.85209
O         62.78638        40.48101        -3.12463
H         62.42473        41.05758        -3.83174
O         71.27571        47.51617         2.13268
H         71.13836        48.38407         2.58785
O         71.85840        62.86315        -1.20580
H         71.20839        62.66701        -1.91699
O         62.50097        63.14493         3.03433
H         62.82229        64.06319         3.19011
O         66.45697        64.36026         1.97899
H         65.63186        64.76988         2.34291
O         51.64604        54.25901         1.86459
H         51.25631        54.75736         2.61412
O         56.07819        50.74048         0.86019
H         56.14053        49.78007         1.05919
O         69.84463        70.57154        -0.64619
H         70.65420        71.10552        -0.79668
O         57.72287        46.22357        -3.51062
H         58.56829        45.79362        -3.76147
O         63.68729        59.53694        -0.89897
H         62.78017        59.70591        -1.23670
O         60.69262        59.58512        -0.47633
H         59.89795        60.15908        -0.51304
O         53.64359        56.09143        -1.62765
H         53.14271        55.52961        -2.27146
O         68.80858        43.72323         1.63905
H         68.25936        43.07952         2.13841
O         64.71154        58.41724         2.44362
H         65.37934        57.76021         2.72998
O         63.69102        57.12725        -1.70980
H         64.55378        56.89666        -2.11238
O         58.60826        47.85131         0.65284
H         58.76760        48.72842         1.06341
O         71.16026        41.99549        -1.90680
H         70.49500        42.67524        -2.19336
O         63.93734        65.58320         2.37171
H         63.85659        66.56263         2.38187
O         56.30670        55.98331        -1.62268
H         55.38494        56.23582        -1.89597
O         51.47006        46.19837         0.57083
H         50.58295        46.04471         0.96292
O         54.80719        57.50700         3.38162
H         54.82650        58.20866         4.06691
O         64.40685        42.30286        -2.82600
H         64.42114        41.40778        -3.24190
O         65.51917        64.22431        -1.57797
H         65.52138        64.94318        -2.25108
O         71.24718        43.43206         1.44655
H         71.44134        44.35533         1.71497
O         51.39973        59.15604        -0.53306
H         50.60657        59.56127        -0.94088
O         57.41124        57.36740         3.55679
H         57.50952        58.09087         4.21214
O         66.97546        45.67562         1.89121
H         67.75279        45.18834         2.25504
O         58.75784        42.56282         0.14089
H         57.92478        43.01222         0.39935
O         69.94749        39.51638        -1.68820
H         70.55856        40.21454        -2.03408
H         37.53872        48.79246         0.44086
H         35.44599        49.83997         1.17470
H         37.50694        53.56084         1.86037
H         35.41929        52.23530         1.90866
H         39.14663        47.94171         0.09886
H         39.21876        54.38166         2.35877
H         41.23087        46.78310        -0.37872
H         41.34927        55.50606         2.64040
H         44.93245        45.05470        -2.01795
H         42.82398        46.24024        -1.59700
H         45.01901        57.91042         2.19013
H         42.95891        56.69357         2.09224
H         46.64523        44.14758        -2.50592
H         46.69142        58.91654         2.12581
H         48.76951        43.02926        -2.85884
H         48.72007        60.21242         1.65418
H         52.48673        40.73085        -2.94678
H         50.37993        41.93593        -2.71074
H         52.54027        62.33301         1.75827
H         50.41703        61.28433         1.27614
H         54.15420        39.63986        -2.32448
H         54.06046        62.78705         0.39330
H         56.21342        38.41842        -1.72109
H         56.04775        64.17947         0.19463
H         59.46272        36.58784         0.62497
H         57.48554        37.74227        -0.23361
H         59.82838        66.53706        -0.19460
H         57.72664        65.39478         0.24724
H         61.03429        35.74224         1.33832
H         61.37185        67.69316         0.27461
H         63.03951        34.57751         2.06036
H         63.44655        68.86872        -0.23682
H         66.63334        32.34323         2.95873
H         64.62398        33.55141         2.33845
H         67.13451        70.86661        -1.46489
H         65.11364        69.78905        -0.65398
H         68.20298        31.34877         3.32972
H         68.40647        71.42511        -3.02371
H         72.49260        31.23105         3.67706
H         70.25458        30.14365         3.95835
H         72.65832        33.51021         2.77059
H         72.75104        35.31303         2.23100
H         72.90471        37.56160         1.38514
H         73.03816        39.28477         0.79312
H         73.26805        41.53399        -0.05203
H         72.23598        44.07078        -1.69569
H         73.06119        46.15430        -0.08059
H         72.98801        48.10340        -0.30167
H         73.04018        50.50851        -0.03726
H         73.19882        52.34099         1.02424
H         73.21254        54.78302         1.21403
H         73.07471        56.52951         2.01995
H         72.92593        58.87760         2.78683
H         72.52957        62.36287         2.80185
H         72.75364        64.25997         1.23043
H         73.07478        65.15595        -0.92029
H         73.02118        67.46810        -1.77163
H         72.79602        68.99293        -3.00526
H         72.53687        71.11230        -4.23420
H         70.29588        72.21430        -4.39387
