         260
 CSIRO Nanostructure Databank - Neutral Graphene Oxide Data Set
C         30.73310        31.95722        -1.65059
C         30.83651        32.89044        -0.85536
C         30.57984        36.09009        -0.20970
C         30.72923        37.29135        -0.44813
C         30.62737        40.52159        -0.23380
C         30.57489        41.70491         0.13739
C         33.07825        29.53205        -1.65962
C         31.99001        29.94718        -2.09576
C         33.11541        31.63314         0.11203
C         30.82485        30.70011        -2.33200
C         32.97389        33.09703         0.12885
C         31.57792        33.67463         0.14323
C         32.71975        35.95689         1.07717
C         31.48688        35.14394         0.43014
C         32.83824        37.47895         0.74218
C         31.68433        38.26887         0.08312
C         32.95540        40.39056         0.30176
C         31.85816        39.65947        -0.47908
C         32.94304        41.87372         0.38409
C         31.60642        42.60812         0.52991
C         32.89631        44.51115         1.14348
C         31.78357        43.92607         0.83642
C         35.80255        27.65602        -1.25140
C         35.42684        28.93917        -0.79315
C         34.27102        29.69343        -0.89551
C         35.56194        31.79513        -0.30663
C         34.27259        31.05113        -0.32193
C         35.60134        33.30941        -0.06496
C         34.21064        33.93792         0.19997
C         35.42205        36.02931         1.11444
C         34.12119        35.27128         0.91156
C         35.40682        37.51805         0.95573
C         34.16309        38.15612         0.76102
C         35.45449        40.39193         0.92038
C         34.08933        39.63245         0.81179
C         35.48253        41.87112         0.84482
C         34.21563        42.62522         0.73228
C         35.43246        44.66246         1.68070
C         34.17533        44.04144         1.22195
C         35.74014        46.09455         1.66230
C         37.82693        27.22355        -0.02563
C         36.73090        26.87094        -0.96112
C         37.85288        28.69059         0.14210
C         36.52406        29.43376         0.20242
C         37.95825        31.55864         0.63230
C         36.73578        30.93985         0.05062
C         37.91731        33.00066         0.99649
C         36.57221        33.76046         1.04182
C         37.86319        35.95475         0.68407
C         36.70058        35.29663         0.87510
C         37.98146        37.44977         0.97922
C         36.65372        38.19661         0.78773
C         37.84583        40.34017         0.30938
C         36.69415        39.62183         0.66576
C         37.84673        41.81951         0.35503
C         36.68265        42.51436         0.94621
C         38.11887        44.61195         1.44254
C         36.77971        43.89805         1.46509
C         38.18898        46.15814         1.57548
C         36.82406        46.67945         1.62389
C         40.50745        24.63721        -0.56896
C         39.39357        25.13780        -0.37395
C         40.31151        27.05349         0.82459
C         39.02622        26.38209         0.30901
C         40.34156        28.56136         0.92708
C         38.99110        29.33624         0.90874
C         40.47563        31.49613         0.74417
C         39.11326        30.82870         0.65309
C         40.31526        32.94942         0.27898
C         39.21129        33.75729         0.84652
C         40.36405        35.87728         0.18053
C         39.04544        35.14331         0.22589
C         40.30648        37.28700        -0.21617
C         39.21517        38.16340         0.30381
C         40.20832        40.53882        -0.59893
C         39.14771        39.67444         0.05594
C         40.30024        41.87470        -0.32234
C         39.09632        42.60957         0.12190
C         40.60527        44.66242         0.57024
C         39.31863        43.91544         0.82737
C         40.72714        46.14619         0.97201
C         39.36128        46.86901         1.08084
C         40.55521        49.00864         0.82149
C         39.53781        48.22750         0.91956
C         43.12285        24.49937        -0.03516
C         41.72998        24.87327         0.21419
C         42.84309        27.12537         1.32469
C         41.62819        26.28071         0.84312
C         42.83983        28.55701         0.72948
C         41.65782        29.24032         0.63209
C         42.89581        31.31224        -0.25420
C         41.53801        30.61226        -0.03574
C         42.94267        32.44318        -0.99318
C         41.10867        33.60739        -0.60701
C         42.65900        35.63962        -1.07968
C         41.46459        35.02816        -0.40251
C         42.65034        37.13498        -1.12129
C         41.35472        37.69919        -1.04434
C         42.62887        40.41340        -1.22118
C         41.34838        39.93211        -1.25018
C         42.69355        41.91394        -1.27554
C         41.46630        42.66075        -0.81353
C         42.97522        44.75665        -0.51740
C         41.62139        44.10526        -0.41875
C         43.01269        46.15309        -0.19516
C         41.72955        46.88469         0.07321
C         43.04269        48.96068        -0.01895
C         41.67242        48.45424         0.04322
C         44.01273        24.96932         0.71204
C         45.51009        27.03504         0.84503
C         44.23752        26.33718         1.14370
C         45.37759        28.42361         0.18982
C         44.20431        29.29549         0.86295
C         45.36861        31.14526        -0.80062
C         44.23799        30.84019         0.30000
C         45.42382        32.65758        -1.20066
C         44.10038        33.33908        -1.27023
C         45.20186        35.69454        -1.42112
C         43.92730        34.86244        -1.35978
C         45.17766        37.21535        -1.47869
C         43.83047        37.96342        -1.51991
C         45.10822        40.22838        -1.10965
C         43.81769        39.52217        -1.49709
C         45.17684        41.68782        -1.45730
C         43.99445        42.62842        -1.49074
C         45.35247        44.83630        -1.10812
C         44.10864        44.09277        -1.05616
C         45.42617        46.16230        -0.54750
C         44.24095        46.85289        -0.23232
C         44.06806        48.27307        -0.09734
C         47.83402        27.04268        -0.00975
C         46.78659        26.49320         0.35358
C         48.06060        28.49519         0.14575
C         46.70116        29.21091         0.20503
C         47.80757        31.36475        -0.10231
C         46.67176        30.62163        -0.24369
C         47.94782        32.69756        -0.75053
C         46.68314        33.49296        -1.08636
C         47.52170        35.83648        -0.31796
C         46.50640        35.01544        -1.03245
C         47.71232        37.28730        -0.59802
C         46.47423        37.98149        -1.16095
C         47.75810        40.20180        -0.99370
C         46.40659        39.47951        -0.94645
C         47.66057        41.72290        -1.12550
C         46.39516        42.12995        -1.84053
C         47.88262        44.77310        -1.43198
C         46.57064        44.33407        -1.68098
C         47.83166        46.03569        -0.76740
C         46.76390        46.63395        -0.49616
C         50.60772        28.87304         0.22527
C         49.26830        29.31038        -0.31663
C         49.86633        31.19533         1.34833
C         49.04697        30.69816         0.36551
C         49.69070        33.52505         1.75397
C         48.53760        34.12880         1.24946
C         50.32059        36.31879         1.04600
C         48.57746        35.18027         0.29914
C         49.80099        37.62386         1.22150
C         48.57367        38.19565         0.41986
C         49.96342        40.49761         0.36666
C         48.91048        39.57575        -0.22952
C         50.50703        41.53781        -0.44550
C         48.87195        42.48348        -1.62827
C         50.38883        44.21777        -1.43615
C         49.00763        43.87014        -1.64622
C         51.41676        29.47544         0.95080
C         52.03361        31.79991         2.04515
C         51.25932        30.75124         1.58135
C         51.92105        33.05729         2.19040
C         51.01160        34.08099         1.92730
C         51.48321        36.42460         2.98684
C         51.11851        35.55428         1.94666
C         51.18832        37.64474         3.16825
C         50.22591        38.31642         2.38065
C         51.29445        41.42238         2.12850
C         50.30702        40.49129         1.74195
C         51.73485        42.31832         1.34747
C         51.38224        42.57647         0.02010
C         51.34129        43.77579        -0.77254
O         43.10368        42.36716        -2.61920
O         46.99736        34.32206        -2.23524
O         41.08847        38.74931        -1.90436
O         33.52787        33.81111        -1.08321
O         48.85998        39.57427        -1.67280
O         40.26628        27.70216         2.11882
O         42.98325        35.16242        -2.42802
O         34.68482        40.06648         2.09799
O         47.52466        28.98425         1.39319
O         38.74582        33.38455         2.15023
O         33.76060        42.49469        -0.69365
O         38.09180        42.57319        -0.93962
O         45.33977        36.40938        -2.67641
O         39.76510        39.12949         1.30140
O         50.04565        41.70426        -1.77659
O         36.09405        44.00146         2.76813
O         41.05128        43.74957        -1.70977
O         31.81148        38.22783         1.50018
O         46.46296        43.28827        -2.59930
O         40.45399        43.80647         1.74661
O         44.78667        32.86486        -2.49501
O         49.04043        33.06317        -1.15630
O         41.42911        25.04349         1.60439
O         49.42944        32.21514         2.23867
O         36.50953        31.38197        -1.34022
O         37.90620        26.40271         1.19998
O         44.41815        29.33469         2.21643
O         47.59378        37.61374        -2.00070
O         41.76624        32.90145        -1.61660
O         41.25456        47.64480        -1.07354
O         45.60906        39.88167         0.23478
O         30.95157        34.15116         1.33276
O         38.46157        45.26622         2.69442
O         34.74684        35.36783         2.22545
O         41.42388        35.38645         1.03957
O         49.75445        39.59392         2.66464
O         45.16462        26.70933         2.18749
O         36.00787        33.46205         2.27523
O         49.84630        35.64255        -0.06496
O         43.78452        38.78945        -2.74144
O         32.15833        39.58185        -1.86298
H         32.24246        40.49056        -2.22128
O         42.71564        27.28597         2.72798
H         43.39531        27.96550         2.98525
O         38.48380        29.34198         2.29607
H         38.89430        28.55855         2.75024
O         40.95825        30.32233        -1.32891
H         40.99469        31.14952        -1.86552
O         36.08748        33.93943        -1.27172
H         35.49605        33.67368        -2.01067
O         47.32119        33.57951         1.56853
H         47.48590        32.82615         2.18281
O         38.22786        37.45886         2.40460
H         38.72708        38.28255         2.61612
O         35.94449        29.18518         1.50332
H         36.69513        29.22297         2.15707
O         47.43431        42.21378         0.24342
H         46.73104        41.64807         0.64484
O         38.78123        34.87539        -1.19263
H         37.85874        34.52378        -1.29519
O         29.86133        30.26497        -3.13316
H         29.11973        30.90006        -3.18928
O         32.03269        30.91605         0.51198
H         32.27582        29.97187         0.60337
O         49.23690        29.39875        -1.72046
H         49.98825        29.94202        -2.03530
O         44.98917        28.03632        -1.12436
H         45.07671        28.78708        -1.76254
O         41.31881        46.18221         2.27938
H         40.82667        45.53942         2.84264
O         32.36943        35.89386         2.45548
H         33.16815        36.08592         2.99719
O         44.58536        31.65917         1.41201
H         44.56292        31.02987         2.19739
O         45.06867        30.45211        -2.02100
H         44.76913        31.13090        -2.68225
O         47.57867        38.44405         1.43729
H         47.96966        39.01959         2.13531
O         40.91203        31.57021         2.10694
H         40.24361        32.09662         2.60650
