         285
 CSIRO Nanostructure Databank - Neutral Graphene Oxide Data Set
C        -11.09823         0.91739        -0.25132
C         -9.86328         1.66732        -0.18277
C         -8.67059         0.87496         0.22181
C         -7.41091         1.57719         0.61131
C         -6.10296         0.87187         0.56093
C         -4.90992         1.52065         0.77529
C         -3.70296         0.72578         1.20808
C         -2.39565         1.48074         1.58780
C         -1.11595         0.66051         1.25288
C          0.18812         1.42837         1.05254
C          1.40396         0.72244         0.47937
C          2.34476         1.67993        -0.30897
C          3.57761         0.97650        -0.95243
C          4.89826         1.77294        -1.33970
C          6.19976         0.99501        -0.98707
C          7.32476         1.69220        -0.26943
C          8.56844         0.95122         0.08348
C          9.86388         1.70305         0.41518
C         11.07309         0.86029         0.06160
C         -9.72761         3.00659        -0.44544
C         -8.48713         3.72077        -0.22056
C         -7.44092         3.09870         0.70261
C         -6.07180         3.73067         0.56907
C         -4.85151         2.98502         0.83137
C         -3.62464         3.62239         0.98521
C         -2.35561         2.80443         0.79288
C         -1.06006         3.64306         0.94089
C          0.23096         2.91916         1.21285
C          1.56275         3.71249         1.22231
C          2.69065         2.94254         0.48622
C          3.90036         3.73478         0.13849
C          4.87792         3.29699        -0.94201
C          6.23539         3.86618        -0.58337
C          7.39118         3.16303        -0.39390
C          8.68085         3.84746        -0.27626
C          9.85783         3.12159        -0.09959
C         -8.34414         5.02620        -0.60667
C         -7.17762         5.80668        -0.22951
C         -6.01988         5.07783         0.29172
C         -4.83278         5.83963         0.70423
C         -3.59273         5.08849         1.16358
C         -2.29048         5.87140         1.44180
C         -1.02606         5.13877         1.04623
C          0.27092         5.87244         1.19924
C          1.44965         5.20720         0.91924
C          2.70718         5.89537         0.67746
C          3.87208         5.22968         0.31336
C          5.07543         5.94714        -0.05823
C          6.23622         5.30035        -0.44554
C          7.51059         6.01847        -0.54781
C          8.70510         5.26221        -0.44222
C         -7.17563         7.17411        -0.29925
C         -6.09515         7.98637         0.38465
C         -4.73310         7.27236         0.21582
C         -3.60413         8.03710         0.93053
C         -2.23701         7.30291         0.79934
C         -1.11488         8.15735         1.43698
C          0.27423         7.38192         1.49506
C          1.29152         8.01296         0.42626
C          2.71717         7.40886         0.77000
C          3.76900         8.04897        -0.12058
C          5.15356         7.45270         0.05852
C          6.14848         8.03232        -0.99032
C          7.48392         7.39940        -0.72000
C         -5.95620         9.40333        -0.11463
C         -4.77513        10.05878        -0.06286
C         -3.54482         9.45354         0.42111
C         -2.35161        10.12089         0.39365
C         -1.08612         9.51192         0.73535
C          0.07050        10.19735         0.48059
C          1.34929         9.53611         0.41074
C          2.46151        10.21460        -0.00157
C          3.68017         9.50448        -0.42958
C          4.95995        10.20893        -0.69205
C          6.10666         9.54506        -0.92816
C        -11.13442        -0.44376        -0.12423
C         -9.93596        -1.26667        -0.16013
C         -8.63469        -0.52474        -0.35124
C         -7.44877        -1.32184         0.14385
C         -6.16276        -0.61712         0.47238
C         -4.85222        -1.30428         0.09568
C         -3.71254        -0.76414         0.98175
C         -2.43666        -1.61250         1.19666
C         -1.13841        -0.81000         1.00615
C         -0.09959        -1.42366         0.06940
C          1.27608        -0.71763         0.07313
C          2.29640        -1.37764        -0.85732
C          3.59220        -0.53605        -1.09075
C          4.94731        -1.27919        -1.45218
C          6.24245        -0.51160        -1.07054
C          7.47140        -1.28247        -0.57690
C          8.68035        -0.51872        -0.18137
C          9.78739        -1.18686         0.63004
C         11.06208        -0.47232         0.22545
C         -9.96213        -2.62944        -0.12479
C         -8.77950        -3.49256        -0.52018
C         -7.45510        -2.72399        -0.40177
C         -6.20186        -3.51359        -0.31803
C         -5.01291        -2.81241         0.27285
C         -3.77597        -3.59587         0.51239
C         -2.45749        -2.93564         0.45360
C         -1.33947        -3.60222         0.05713
C         -0.01218        -2.95458         0.40638
C          1.24421        -3.65892        -0.14167
C          2.46490        -2.84845        -0.48477
C          3.69518        -3.56713        -0.95982
C          4.97853        -2.78609        -1.01668
C          6.08946        -3.40587        -0.16998
C          7.32594        -2.57233         0.22518
C          8.61986        -3.38873         0.35179
C          9.77998        -2.69636         0.44849
C         -8.71800        -4.86821         0.14940
C         -7.58153        -5.62972         0.17824
C         -6.29815        -5.04045        -0.37632
C         -5.08542        -5.76818         0.13471
C         -3.80612        -5.09954         0.58546
C         -2.68398        -5.80287        -0.18723
C         -1.39452        -5.01093        -0.43687
C         -0.15946        -5.79074        -0.79937
C          1.15455        -4.97939        -0.97253
C          2.41350        -5.81392        -0.81745
C          3.68080        -5.05415        -0.66147
C          4.83761        -5.71580        -0.02789
C          6.07770        -4.88508         0.13397
C          7.31213        -5.65295         0.44168
C          8.52521        -4.84203         0.85800
C         -7.53821        -7.05921         0.46676
C         -6.37831        -7.81522         0.34215
C         -5.09983        -7.13513         0.21375
C         -3.82007        -7.94448        -0.03798
C         -2.49614        -7.23562         0.41935
C         -1.27036        -7.95290        -0.08789
C         -0.18396        -7.30073        -0.58784
C          1.08772        -8.07077        -0.72216
C          2.36345        -7.30464        -0.62776
C          3.50129        -7.99647         0.10970
C          4.80719        -7.18380         0.19168
C          6.14628        -7.89008        -0.00492
C          7.30556        -7.01141         0.46738
C         -6.30266        -9.25036         0.57760
C         -5.13229        -9.95804         0.63900
C         -3.81081        -9.37768         0.44490
C         -2.61983       -10.04031         0.51016
C         -1.22926        -9.40646         0.40114
C         -0.19194       -10.25259        -0.37635
C          1.15016        -9.52765        -0.37066
C          2.34231       -10.15507        -0.22228
C          3.68904        -9.44304        -0.38473
C          4.87811       -10.00864         0.38064
C          6.00429        -9.29297         0.56989
O          4.43325         4.03851        -2.10513
O          0.31505         2.06030         2.38111
O         -2.46643        -2.02417         2.57930
H         -1.57401        -2.38842         2.78745
O         -4.58948         5.59047         2.13268
O          5.60430        -3.89267         1.11835
O          3.89555         2.86216         1.30350
O         -0.69761        -9.40340         1.75302
H         -1.22353        -8.74610         2.26915
O          5.66060         7.81144         1.35495
H          4.91552         7.73001         2.00276
O          3.17730         0.34402        -2.18852
O         -8.31609         0.97094         1.63051
O          4.04210        -9.46282        -1.78860
H          3.30377        -9.02165        -2.27895
O          1.52463         2.15283        -1.39795
H          1.59226         1.49257        -2.12777
O          0.82452         7.56194        -0.78225
O          4.93022         1.78533        -2.77521
H          4.11289         2.22839        -3.09094
O          9.53121        -0.95932         2.02913
H          8.61817        -1.33909         2.18971
O          1.98486         3.81472         2.60014
H          1.81273         2.94375         3.03067
O         -1.00427         4.48274        -0.26730
O          6.68826         0.32629        -2.17782
O         -1.46129         8.49325         2.80262
O         -6.48490        -5.41218        -1.83984
O         -1.03307        -5.25486        -1.84041
O         -2.20846         5.99127         2.88534
H         -3.14073         5.96674         3.21849
O         -3.95441         8.03939         2.37861
H         -1.83798         7.65832         3.19945
O          3.33625        -5.67372        -1.95708
O          7.15859        -2.11784         1.55673
O          4.65378        -6.29046         1.33107
O          3.38200         8.41923        -1.44902
O          7.53542         1.21367         1.10695
O         -6.98901        -1.24569         1.51385
O         -4.14614        -0.21261         2.24399
O         -4.65723        -3.13404         1.62898
O          8.58235        -1.10738        -1.51153
O          0.04808        -3.06488         1.84888
H          0.96299        -2.82315         2.12882
O         -0.08967       -11.53266         0.22951
H          0.01513       -11.37633         1.19333
O          6.33778        -8.01189        -1.43836
H          5.64123        -8.62899        -1.78650
O          1.91766        -0.34440         1.32512
O          3.12535         7.79610         2.09228
H          2.48321         7.41801         2.74732
O          1.91393        -7.84487        -1.92515
O          4.43020        -3.46471        -2.19781
O         -0.72299        -0.31861         2.29254
O         -3.24559        -6.00774        -1.49427
H         -2.49114        -6.14555        -2.12673
O          4.93912        -1.31756        -2.88400
H          5.28204        -0.44394        -3.19440
O         -3.74512        -8.05488        -1.42997
O          9.91169         1.94219         1.84947
H          8.99522         1.80578         2.19178
O          0.75850         7.51063         2.82932
H          0.17760         8.17581         3.28450
O         -6.59461        -2.86055        -1.57482
O         -2.42138         1.78150         2.97495
H         -2.46507         0.92769         3.45893
O         -0.69525        -1.25397        -1.22431
H         -0.05956        -1.54893        -1.92139
O         -2.34275         2.33921        -0.58232
H         -2.12087         3.11007        -1.15395
O          2.29080        -3.42645         0.85764
O          3.01794        -8.15228         1.46764
H          3.37530        -7.39876         1.99638
O         -8.97039        -3.77870        -1.94022
H         -8.12544        -4.18996        -2.25664
O          9.69750        -5.57767         0.55022
H         10.46046        -5.16900         1.00501
O          1.14917        -4.47544        -2.32305
H          1.92820        -4.86635        -2.79077
H          5.18138         4.11725        -2.73405
O         -3.70750        -5.35353         2.01420
H         -4.19716        -4.62312         2.46650
O         -6.49282         8.05840         1.77097
H         -6.29516         7.19829         2.20036
O         -8.35667        -0.34591        -1.82250
O         -4.00204         9.41022         2.85084
H         -3.04289         9.59566         3.03958
O         -7.86337         3.45601         2.04871
H         -8.31607         2.66165         2.42171
O          5.74395         7.59240        -2.30680
H          4.80080         7.87592        -2.42457
O         -4.53907        -0.99785        -1.27056
H         -5.20524        -1.45058        -1.84204
O         -5.41746        -4.83764        -2.61658
H         -4.70927        -5.53140        -2.56023
O         -9.36901        -1.03117        -2.59647
H         -9.09669        -1.99349        -2.55662
O         -4.49414         7.23622        -1.20284
H         -3.52103         7.15025        -1.35801
O          1.70127        -1.50037        -2.17816
H          2.40934        -1.75454        -2.81236
O         -2.31805        -7.32743         1.82715
H         -3.07169        -6.89448         2.29870
O         -1.90372         7.16106        -0.59423
H         -0.91299         7.26137        -0.74047
H         11.96901        -1.06247         0.02083
H         11.99622         1.37993        -0.23832
H         10.80894         3.67647        -0.05063
H          9.67642         5.77871        -0.48200
H          8.40805         7.99620        -0.67089
H          7.03374        10.10537        -1.12488
H          4.94995        11.30956        -0.67210
H          2.43071        11.31061        -0.10585
H          0.00351        11.23287         0.10945
H         -2.32028        11.14670        -0.00662
H         -4.71095        11.10031        -0.41528
H         -6.85400         9.91800        -0.48996
H         -8.07592         7.69577        -0.66125
H         -9.15630         5.53212        -1.15201
H        -10.58880         3.57687        -0.82887
H        -12.03975         1.47702        -0.35795
H        -12.10531        -0.96105        -0.10901
H        -10.92935        -3.14318        -0.00646
H         -9.68294        -5.33495         0.40528
H         -8.48074        -7.55346         0.74897
H         -7.24897        -9.78809         0.74344
H         -5.17882       -11.03704         0.85596
H         -2.61727       -11.10124         0.81062
H         -0.52194       -10.39248        -1.43880
H          2.34128       -11.24226        -0.04067
H          4.80692       -11.03327         0.77855
H          6.85280        -9.74033         1.11142
H          8.25167        -7.52612         0.69965
H          8.44855        -4.72611         1.98440
H         10.72698        -3.22795         0.64223
