         240
 CSIRO Nanostructure Databank - Neutral Graphene Oxide Data Set
C        -11.17796         0.63905        -0.43516
C         -9.97230         1.44630        -0.42779
C         -8.65328         0.74577        -0.67579
C         -7.47443         1.43374        -0.02349
C         -6.32464         0.77153         0.29295
C         -5.10075         1.50033         0.63501
C         -3.85285         0.73069         1.09547
C         -2.53268         1.41575         0.75930
C         -1.35257         0.74921         0.86855
C         -0.05612         1.48622         0.77895
C          1.25532         0.77497         0.85338
C          2.47102         1.44774         0.33508
C          3.63757         0.73857         0.07568
C          4.84521         1.45356        -0.30723
C          6.10922         0.72575        -0.74764
C          7.32873         1.36073        -0.02171
C          8.63285         0.70393        -0.38521
C          9.84117         1.40279        -0.23825
C         11.09251         0.65622        -0.28465
C         -9.99584         2.80589        -0.38377
C         -8.70384         3.57450        -0.53054
C         -7.61930         2.89681         0.31264
C         -6.30785         3.64644         0.28635
C         -5.09668         2.88691         0.58467
C         -3.82177         3.63822         0.75070
C         -2.53029         2.89767         0.71629
C         -1.33479         3.57256         0.12255
C         -0.05030         2.81566         0.09442
C          1.22057         3.57006         0.01643
C          2.42058         2.88071         0.17991
C          3.71863         3.62291         0.26353
C          4.88890         2.82207        -0.25320
C          6.14600         3.57458        -0.63009
C          7.38687         2.84644        -0.20304
C          8.60232         3.53922        -0.03513
C          9.82639         2.79571         0.03826
C         -8.77484         5.05133        -0.25571
C         -7.56423         5.76537        -0.16122
C         -6.32919         5.01174         0.11952
C         -5.08999         5.81358         0.21326
C         -3.77891         5.10718         0.43798
C         -2.51660         5.73980        -0.01973
C         -1.29425         5.03458        -0.04508
C         -0.06935         5.66384        -0.39079
C          1.17548         4.97600        -0.29928
C          2.44300         5.66440        -0.48864
C          3.65264         5.01946        -0.29628
C          4.91823         5.73105        -0.27559
C          6.13237         5.02031        -0.20863
C          7.36094         5.70356         0.02995
C          8.57715         4.96493         0.05770
C         -7.53631         7.15473        -0.36449
C         -6.29637         7.94234        -0.70405
C         -5.05318         7.10317        -0.49020
C         -3.83500         7.65062        -0.76254
C         -2.56053         7.10521        -0.39497
C         -1.36509         7.88342        -0.49381
C         -0.12143         7.11266        -0.73087
C          1.17593         7.87807        -0.85578
C          2.46414         7.10947        -0.82113
C          3.73113         7.88769        -0.54522
C          4.94045         7.14258        -0.18455
C          6.13793         7.83683         0.12375
C          7.33435         7.11332         0.24895
C         -6.16713         9.25433         0.09953
C         -5.07215        10.05004         0.22744
C         -3.76315         9.76560        -0.35825
C         -2.50399        10.05892         0.08699
C         -1.31889         9.29106        -0.33084
C         -0.04837         9.94472        -0.26650
C          1.17156         9.30410        -0.46965
C          2.41704         9.96588        -0.18792
C          3.64076         9.32199        -0.19644
C          4.87688         9.96321         0.18183
C          6.05489         9.27678         0.29768
C        -11.15863        -0.71583        -0.57928
C         -9.92901        -1.48403        -0.63399
C         -8.67379        -0.75226        -0.48162
C         -7.49229        -1.41569        -0.34165
C         -6.33867        -0.74232         0.38817
C         -4.98575        -1.35633         0.09972
C         -3.77900        -0.70629         0.62493
C         -2.58578        -1.44392         0.73508
C         -1.33446        -0.71951         1.11975
C         -0.01663        -1.44369         1.18406
C          1.28892        -0.69776         1.11384
C          2.52884        -1.46193         0.79450
C          3.61178        -0.77531        -0.02460
C          4.96591        -1.39166         0.29485
C          6.10932        -0.77524        -0.44315
C          7.39487        -1.51247        -0.54330
C          8.63412        -0.70082        -0.80400
C          9.94642        -1.45147        -0.86593
C         11.14885        -0.68279        -0.50298
C         -9.94000        -2.86434        -0.59032
C         -8.71924        -3.63774        -0.61377
C         -7.42089        -2.86719        -0.79134
C         -6.25690        -3.58072        -0.11657
C         -4.96246        -2.83790        -0.10485
C         -3.70632        -3.60372         0.13170
C         -2.52922        -2.84199         0.56482
C         -1.25332        -3.59145         0.55474
C          0.03366        -2.87687         0.74144
C          1.30653        -3.66254         0.88185
C          2.50006        -2.94530         0.74991
C          3.76726        -3.65689         0.36398
C          5.03922        -2.84360         0.63864
C          6.34806        -3.59682         0.51690
C          7.62981        -2.79820         0.23752
C          8.74751        -3.60566        -0.42680
C          9.88550        -2.93595        -0.79786
C         -8.69880        -5.00422        -0.57730
C         -7.40163        -5.75635        -0.80537
C         -6.27410        -5.06346         0.00561
C         -5.05276        -5.88494         0.43358
C         -3.74283        -5.09357         0.29428
C         -2.53229        -5.81184         0.82775
C         -1.21543        -5.04856         1.00811
C          0.01254        -5.79533         0.40009
C          1.27551        -5.07807         0.83866
C          2.51859        -5.82261         1.07777
C          3.83575        -5.08395         0.87788
C          5.02555        -5.82976         0.39439
C          6.30900        -5.08343         0.31065
C          7.46829        -5.74695        -0.33508
C          8.61955        -5.02702        -0.61440
C         -7.32499        -7.21525        -0.46539
C         -6.07720        -7.93758        -0.92720
C         -4.89183        -7.24167        -0.23021
C         -3.73830        -7.95118         0.04050
C         -2.52101        -7.28666         0.59514
C         -1.20692        -7.98061         0.52510
C         -0.02983        -7.29047         0.67032
C          1.20942        -8.09336         1.00904
C          2.53687        -7.32429         0.96145
C          3.77747        -7.97916         0.40259
C          4.97893        -7.16213         0.08230
C          6.14417        -7.82867        -0.48719
C          7.33048        -7.12439        -0.68337
C         -6.06194        -9.41967        -0.61473
C         -4.91381       -10.08359        -0.35398
C         -3.66377        -9.37985        -0.13602
C         -2.45202       -10.06259         0.00958
C         -1.21984        -9.41532         0.27976
C          0.01647       -10.07940         0.08496
C          1.23561        -9.41823         0.26031
C          2.44753       -10.00054        -0.18680
C          3.66889        -9.33093        -0.19506
C          4.84047        -9.90107        -0.77559
C          6.02172        -9.20109        -0.88653
O          3.99303         3.81923         1.70837
H          3.87624         2.94883         2.14847
O          6.20658         3.63230        -2.10093
H          6.27383         2.69795        -2.42409
O         -7.06633        -5.56371        -2.20328
H         -7.13558        -4.59567        -2.42661
O         -4.43551         5.85776         1.53332
O         -5.90051        -7.89713        -2.35765
H         -6.27872        -7.04655        -2.68965
O         -8.26416         3.49500        -1.91975
H         -8.98109         3.84075        -2.49044
O         -5.25105        -6.18809         1.83297
H         -5.71902        -5.42725         2.24489
O         -0.98275        -4.94536         2.42604
H         -1.36968        -5.75023         2.84673
O         -6.60686        -1.01680         1.80163
H         -6.73706        -1.98347         1.91520
O          3.33352        -5.31296         2.20307
O          5.08750        -1.82275         1.67598
O         -3.92292         0.72689         2.55266
H         -3.68234         1.63617         2.85100
O         -0.04566        -5.73029        -1.05033
H         -0.10382        -4.77331        -1.30437
O          1.01795        -8.45193         2.41424
H          1.91531        -8.63469         2.77935
O          8.13810        -2.36021         1.51864
H          7.92109        -3.06774         2.16862
O          3.30130        -1.10217        -1.41899
H          3.93434        -0.61983        -1.99535
O         -0.77525        -1.17633         2.39872
O          7.06246         1.09789         1.40265
H          7.82979         1.42431         1.91889
O         -6.42393         8.31493        -2.10261
H         -5.56912         8.74027        -2.35086
O         -3.46816        -4.55356        -1.02365
O          9.27617        -0.95732        -2.10014
O          3.49490        -7.95258         1.86161
O         -3.81382         8.87557        -1.46086
O         -8.40933         0.85797        -2.12203
H         -9.13304         0.37931        -2.57880
O          2.27924        -0.98015         2.15676
O          6.25507         0.89619        -2.17152
H          6.67148         0.07140        -2.52614
O          3.75221        -3.81506        -1.09316
H          3.53531        -2.93139        -1.49089
O         -6.69599        -4.21269         1.13222
O         -4.85001        -1.92655        -1.26192
O         -8.10015         2.93558         1.68928
H         -7.43058         2.49813         2.25730
O         -7.15948        -2.84108        -2.22896
H         -6.30038        -2.35972        -2.34698
O          0.42882         7.49330        -2.05250
O          6.43815        -1.58648        -1.64100
O          3.32108         7.52132        -1.92473
O          6.59949        -4.48270         1.65054
O         -0.46172        -3.14678        -0.63479
O         -3.04904         3.40144         1.99859
O          0.70690         1.50874         2.02055
O         -0.89297         2.85832        -1.09922
O         -2.76902        -6.70507         1.94484
H         12.10436        -1.21915        -0.40312
H         12.01631         1.20529        -0.04754
H         10.77478         3.33106         0.18713
H          9.52505         5.50451         0.20537
H          8.27335         7.64174         0.46988
H          6.97331         9.81814         0.56860
H          4.85806        11.04629         0.37542
H          2.37678        11.02911         0.09596
H         -0.03535        11.00976         0.01224
H         -2.35577        10.83932         0.84946
H         -5.14599        10.93076         0.88697
H         -7.07896         9.57756         0.62885
H         -8.49905         7.66059        -0.54284
H         -9.70319         5.59907        -0.48746
H        -10.95060         3.34676        -0.28129
H        -12.14296         1.16164        -0.34909
H        -12.10809        -1.27137        -0.60520
H        -10.89944        -3.40197        -0.54647
H         -9.64424        -5.56568        -0.52422
H         -7.68349        -7.47669         0.54614
H         -6.98211        -9.98290        -0.83066
H         -4.91007       -11.18142        -0.27335
H         -2.44243       -11.15229        -0.14728
H          0.01138       -11.10128        -0.32568
H          2.40023       -11.00702        -0.63287
H          4.78369       -10.93276        -1.15313
H          6.90010        -9.68965        -1.33279
H          8.18930        -7.63779        -1.14165
H          9.46218        -5.54988        -1.09366
H         10.74892        -3.50289        -1.18246
