         490
 CSIRO Nanostructure Databank - Neutral Graphene Oxide Data Set
C         37.40567        49.90906        -0.13967
C         36.46243        50.35618        -1.01038
C         37.64010        52.47090        -1.27976
C         36.56904        51.66960        -1.56980
C         39.94361        48.56349         0.68270
C         39.86579        50.02446         0.75424
C         38.56156        50.73507         0.22873
C         39.92642        52.77326        -0.38831
C         38.72422        52.04344        -0.43412
C         40.03894        54.04933        -1.03877
C         42.40416        48.62920         0.56223
C         41.13181        47.92697         0.54754
C         42.41517        50.01412         0.62972
C         41.15930        50.76654         0.71641
C         42.46612        52.81164        -0.22066
C         41.17279        52.23590         0.19686
C         42.48528        54.08125        -0.84219
C         41.23176        54.69562        -1.19500
C         44.90016        45.78177         0.65659
C         43.68517        46.48318         0.62626
C         44.90200        48.59914         0.50722
C         43.64905        47.87602         0.58985
C         44.91213        49.98332         0.47769
C         43.69351        50.79661         0.85995
C         44.90498        52.79844        -0.02985
C         43.69912        52.16969         0.17832
C         45.00585        54.01436        -0.91403
C         43.71980        54.78504        -1.01818
C         44.97533        56.87058        -1.27836
C         43.77870        56.15554        -1.30272
C         47.39742        44.32811         1.10426
C         47.39237        45.70295         0.79353
C         46.13559        46.43775         0.60314
C         47.38944        48.56053         0.41417
C         46.15650        47.85877         0.45858
C         47.43217        49.95655         0.31629
C         46.15363        50.68123        -0.00072
C         47.46023        52.79765        -0.05259
C         46.18345        52.13793         0.43145
C         47.41168        54.19410        -0.33324
C         46.22177        54.86579        -0.60580
C         47.41272        57.04244        -0.82512
C         46.20585        56.27512        -0.89047
C         47.56795        58.30765        -1.45279
C         49.82222        44.31886         1.27681
C         48.59261        43.65086         1.32441
C         49.83819        45.71111         1.03579
C         48.62580        46.38788         0.76510
C         49.88982        48.57850         0.74566
C         48.68287        47.80499         0.26879
C         49.88168        49.99180         0.62359
C         48.66098        50.67819         0.35796
C         49.95076        52.78013        -0.00789
C         48.67706        52.10479         0.10640
C         49.92136        54.18124        -0.60037
C         48.67444        54.92861        -0.12926
C         49.91801        57.12606        -0.40069
C         48.63374        56.45355        -0.27650
C         49.99943        58.39837        -0.97622
C         48.78370        58.95378        -1.52456
C         52.30209        41.56125         0.69084
C         51.13437        42.18664         0.94676
C         52.35684        44.33992         1.24733
C         51.09889        43.56365         1.56723
C         52.32566        45.76201         1.21252
C         51.08634        46.46237         1.11698
C         52.30699        48.65642         1.45787
C         51.06895        47.87812         1.05575
C         52.32724        50.05682         0.89183
C         51.14653        50.71727         0.62884
C         52.40566        52.86676         0.28662
C         51.14914        52.12839         0.24356
C         52.42311        54.26800         0.11671
C         51.24999        54.99477        -0.51252
C         52.40701        57.14014        -0.01045
C         51.11179        56.38950         0.15690
C         52.31057        58.63286         0.03013
C         51.22197        59.15468        -0.88191
C         52.40452        61.29374        -1.09065
C         51.32449        60.48130        -1.36462
C         54.85296        40.12041         0.41643
C         54.81873        41.54060         0.66751
C         53.58292        42.22858         0.87068
C         54.85982        44.37332         1.31002
C         53.56455        43.62521         1.11056
C         54.80970        45.78016         0.72378
C         53.55272        46.51939         1.09928
C         54.83255        48.61563         1.17608
C         53.57749        47.89271         1.16973
C         54.86520        50.00592         1.06548
C         53.64195        50.68802         0.49660
C         54.81215        52.91081         0.76076
C         53.62592        52.19527         0.59389
C         54.82685        54.34184         0.64795
C         53.60614        55.00931         0.32430
C         54.84081        57.19441         0.31191
C         53.60737        56.46270         0.18290
C         54.80780        58.60294         0.04769
C         53.63605        59.29257        -0.20579
C         54.95230        61.48146        -0.66422
C         53.61997        60.74499        -0.49544
C         55.09540        62.76449        -1.39905
C         57.18129        40.23808        -0.34485
C         55.94512        39.49018        -0.10674
C         57.33921        41.49337         0.48774
C         56.04718        42.27463         0.59863
C         57.27813        44.41128         0.64997
C         56.08316        43.65151         0.79226
C         57.29705        45.77786         0.95674
C         56.07356        46.51691         1.09501
C         57.34427        48.60909         1.66286
C         56.07080        47.88031         1.29358
C         57.33879        50.07955         1.29233
C         56.10876        50.72255         1.15625
C         57.35343        52.94773         1.17526
C         56.04857        52.19799         1.16761
C         57.32262        54.34982         0.68034
C         56.04358        55.08639         0.71911
C         57.31483        57.22046         0.73176
C         56.07368        56.50470         0.58510
C         57.28607        58.69732         0.68190
C         56.05081        59.39225         0.21778
C         57.39365        61.52468        -0.25618
C         56.20843        60.61469        -0.66485
C         57.60965        62.57347        -1.37333
C         56.30515        63.30294        -1.64150
C         59.70177        37.40147        -0.75810
C         58.53832        38.10143        -0.92732
C         59.77536        40.20858        -0.35452
C         58.51942        39.53784        -0.71469
C         59.75633        41.63357        -0.13262
C         58.55474        42.29256         0.10114
C         59.77619        44.45498         0.39327
C         58.48395        43.79339        -0.01381
C         59.78105        45.75871         0.81769
C         58.54954        46.50925         0.98613
C         59.82227        48.62361         0.98779
C         58.57375        47.86919         1.20980
C         59.84697        50.08955         1.16292
C         58.60517        50.79482         1.22900
C         59.85952        52.91668         1.04677
C         58.63058        52.20629         1.12710
C         59.88628        54.35196         0.90995
C         58.62616        55.08584         0.61615
C         59.80800        57.23544         0.81622
C         58.58308        56.55999         0.76452
C         59.86242        58.69657         0.95247
C         58.57481        59.46539         0.70800
C         59.88728        61.44902         0.00256
C         58.66923        60.78802         0.07916
C         59.96889        62.82192        -0.49245
C         58.82744        63.43263        -1.05593
C         60.10228        65.46115        -1.47947
C         58.91626        64.74589        -1.54884
C         62.21460        35.82765        -0.79053
C         62.17663        37.25677        -0.41017
C         60.93784        38.05245        -0.48129
C         62.25984        40.18250        -0.33115
C         60.98764        39.47136        -0.35270
C         62.27701        41.64331        -0.22120
C         61.01739        42.36824        -0.08670
C         62.26432        44.45394         0.37699
C         61.01290        43.73051         0.20265
C         62.28865        45.68160         0.95971
C         61.03068        46.39154         1.36985
C         62.40267        48.58710         1.13014
C         61.11532        47.86338         0.96480
C         62.36114        50.04915         1.14554
C         61.08666        50.76598         1.14976
C         62.32907        52.92413         1.13360
C         61.09580        52.20089         1.11995
C         62.33148        54.34610         1.06802
C         61.08863        55.04535         0.89964
C         62.30667        57.24629         1.35750
C         61.11256        56.52740         0.59258
C         62.35712        58.72674         0.97502
C         61.12690        59.43637         0.78595
C         62.29760        61.59929         0.67011
C         61.09735        60.78509         0.43680
C         62.39225        62.95619         0.10255
C         61.21452        63.54295        -0.44246
C         62.52527        65.60622        -0.92981
C         61.27474        64.88028        -0.95514
C         62.59992        66.95191        -1.37842
C         64.67380        35.83998        -0.96798
C         63.38979        35.16923        -0.93905
C         64.66296        37.34134        -1.14566
C         63.48101        38.00977        -0.47093
C         64.73851        40.14750        -0.49616
C         63.45837        39.48846        -0.49664
C         64.74985        41.64692        -0.64321
C         63.47500        42.32764        -0.21393
C         64.78294        44.43709         0.32335
C         63.49957        43.84155        -0.22631
C         64.80884        45.66565         0.93136
C         63.55794        46.34922         1.42061
C         64.86941        48.52420         1.27957
C         63.57810        47.86064         1.19602
C         64.87176        50.01944         0.98937
C         63.55918        50.75776         1.20195
C         64.78325        52.93211         1.25617
C         63.57474        52.20374         1.21103
C         64.81151        54.35371         1.13255
C         63.57728        55.07046         1.08270
C         64.80259        57.18382         0.88701
C         63.59170        56.49450         1.03114
C         64.81004        58.66534         0.56395
C         63.56123        59.40290         0.96107
C         64.89604        61.65570         1.13444
C         63.58578        60.86843         1.07726
C         64.86576        62.98679         0.41649
C         63.65179        63.62650         0.04357
C         64.94458        65.70054        -0.44668
C         63.70787        64.97775        -0.46390
C         64.97658        67.06555        -0.86111
C         63.78155        67.65895        -1.33877
C         67.13171        33.06722        -1.19161
C         65.95508        33.72925        -1.00941
C         67.11206        35.93083        -1.48890
C         65.87049        35.16380        -1.07598
C         67.15584        37.33847        -0.93863
C         65.96351        38.01240        -0.76291
C         67.21484        40.08390        -0.07760
C         65.92560        39.42647        -0.49815
C         67.24503        41.58273        -0.24363
C         66.01686        42.33219        -0.18442
C         67.28834        44.46532         0.03528
C         66.00319        43.69093         0.09550
C         67.32163        45.76855         0.77795
C         66.08239        46.29606         1.45584
C         67.37720        48.46790         1.79052
C         66.04342        47.82247         1.41691
C         67.35092        49.99733         1.74594
C         66.05188        50.73092         1.61458
C         67.34849        52.94480         1.30207
C         66.05541        52.23231         1.51381
C         67.32576        54.37540         0.93108
C         66.05102        55.07641         0.99858
C         67.28919        57.18557         0.38495
C         66.02292        56.46979         0.81690
C         67.35496        58.63679         0.82613
C         66.06994        59.39803         0.97675
C         67.34210        61.52066         0.67386
C         66.12772        60.85260         0.80773
C         67.32741        62.96092         0.60186
C         66.11376        63.66323         0.34373
C         67.34356        65.82051         0.11242
C         66.14721        65.06328        -0.00530
C         67.35349        67.18144        -0.20167
C         66.20151        67.82161        -0.74953
C         67.48735        69.90632        -1.05820
C         66.28979        69.17177        -1.15449
C         69.64820        31.60157        -1.51397
C         69.62969        33.01859        -1.45000
C         68.39155        33.76258        -1.34280
C         69.64139        35.87905        -1.31014
C         68.40375        35.16077        -1.32923
C         69.65436        37.30507        -1.11340
C         68.43241        38.02309        -0.85837
C         69.70702        40.10449        -0.53212
C         68.46861        39.39253        -0.56045
C         69.73031        41.51143        -0.22734
C         68.48511        42.20843        -0.09503
C         69.81511        44.35138         0.40408
C         68.49987        43.61660         0.32741
C         69.76785        45.81864         0.42457
C         68.53859        46.47243         0.78451
C         69.78685        48.58004         1.03252
C         68.58803        47.85999         1.13107
C         69.78982        50.02652         1.25933
C         68.62706        50.72187         1.47792
C         69.83825        52.91203         0.96349
C         68.55123        52.12853         0.88961
C         69.80265        54.31893         0.78442
C         68.53034        55.02040         0.76015
C         69.79035        57.16198         0.31655
C         68.55976        56.51564         0.90327
C         69.70304        58.58706        -0.04791
C         68.55882        59.38205         0.43118
C         69.82559        61.47445         0.19130
C         68.58432        60.77295         0.44726
C         69.88639        62.92857         0.48309
C         68.59676        63.69009         0.74229
C         69.85486        65.84772         0.14993
C         68.58971        65.22193         0.74631
C         69.83856        67.18253        -0.14215
C         68.58605        67.99173         0.13142
C         69.87590        70.08733        -0.35135
C         68.62881        69.35683        -0.50741
C         69.90485        71.48118        -0.14297
C         72.05289        31.60365        -1.75639
C         70.83522        30.90599        -1.66326
C         72.06449        32.98572        -1.69281
C         70.86366        33.72488        -1.53588
C         72.08315        35.90338        -1.44593
C         70.86652        35.16764        -1.43247
C         72.09537        37.26791        -1.28620
C         70.89156        38.00072        -1.07918
C         72.14313        40.14622        -0.76268
C         70.92044        39.41527        -0.80730
C         72.16769        41.49094        -0.48292
C         70.97319        42.22585        -0.21764
C         72.16492        44.44676        -0.27199
C         71.02484        43.64538        -0.01944
C         72.14516        45.82297        -0.12432
C         70.95709        46.54693         0.23994
C         72.06558        48.78336         0.06623
C         70.94977        47.96287         0.46880
C         72.13777        50.10021         0.36443
C         71.13439        50.73823         1.28605
C         72.25280        52.98541         1.05431
C         71.06090        52.23901         1.07376
C         72.23190        54.35580         0.81304
C         71.01852        55.04769         0.64412
C         72.21126        57.20172         0.00583
C         70.98580        56.47871         0.29274
C         72.24523        58.54253        -0.20483
C         71.01651        59.33954        -0.33399
C         72.23543        61.53990        -0.23786
C         71.00932        60.80418        -0.11329
C         72.27422        62.90728        -0.18120
C         71.10119        63.68437         0.09227
C         72.28277        65.81198        -0.37043
C         71.07825        65.07398        -0.02674
C         72.27576        67.12448        -0.68141
C         70.99903        67.90119        -0.79829
C         72.29351        70.01820        -0.11953
C         71.08795        69.35299        -0.35899
C         72.30576        71.39571         0.12307
C         71.11485        72.12777         0.09571
O         48.58326        55.73692         1.03927
O         60.46911        48.19083        -0.29850
O         63.02291        37.47777         0.79779
O         66.79041        58.89866         2.14189
O         62.14409        57.17087         2.71456
O         41.18046        51.89976         1.63584
O         62.69580        61.43344         2.08634
O         66.52260        50.36720         2.93615
O         57.99925        54.55827        -0.61909
O         59.11768        59.30968         2.06251
O         57.68212        40.30051        -1.68872
O         69.13118        43.78625         1.61599
O         54.24289        61.56398         0.58489
O         70.13279        58.90684        -1.41328
O         69.42073        63.20319         1.86571
O         57.99240        61.94225        -2.58404
O         56.38067        59.44322         1.63187
O         66.83116        52.79022         2.64722
O         56.60941        52.76967         2.42016
O         38.89831        50.61108         1.64942
O         46.06534        50.73590        -1.47586
H         46.27270        49.84135        -1.82357
O         63.55237        46.19073         2.88762
H         64.49613        46.05724         3.18042
O         57.60319        40.99188         1.84906
H         57.78483        41.76477         2.42496
O         51.90121        58.97463         1.43332
H         52.35721        59.80815         1.68359
O         53.75237        50.41400        -0.95915
H         52.98471        50.84418        -1.39436
O         56.39279        60.05911        -1.97675
H         56.98014        60.69321        -2.50507
O         50.97238        56.19772         1.58177
H         51.09921        57.08135         1.99847
O         68.30620        51.88054        -0.53793
H         69.12347        51.50672        -0.93040
O         43.75219        51.02291         2.30253
H         42.90564        51.47003         2.54163
O         65.10222        62.02015         2.54152
H         64.20440        62.07064         2.95030
O         64.85693        58.72655        -0.91982
H         64.04052        58.29521        -1.25681
O         61.49456        56.70383        -0.80770
H         60.82460        56.24554        -1.35960
O         46.24458        52.15922         1.87602
H         46.16224        53.08644         2.17999
O         52.25173        48.80635         2.92168
H         51.40513        49.25045         3.14076
O         67.57558        48.11768         3.21130
H         67.07492        48.79668         3.72714
O         51.66308        55.25108        -1.88518
H         52.56440        55.63945        -1.86590
O         64.49391        37.58804        -2.57803
H         65.28345        37.18732        -3.02113
O         49.60177        53.94379        -1.99981
H         50.41821        54.10416        -2.52698
O         45.23579        53.44450        -2.26295
H         45.68375        52.56981        -2.15136
O         51.10838        43.35436         3.02400
H         51.96767        42.94151         3.25339
O         70.66744        67.96820        -2.23258
H         70.70405        67.05405        -2.58554
O         68.59742        56.77489         2.33752
H         69.28310        56.20072         2.73774
O         60.88411        46.35034         2.81642
H         61.79191        46.29359         3.20664
O         65.13352        50.12637        -0.45049
H         64.35374        49.76782        -0.92563
O         64.78564        41.85208        -2.12897
H         64.14324        41.22253        -2.52404
O         71.63379        50.52468         2.64720
H         70.94177        50.83280         3.26999
O         58.29311        44.05261        -1.45208
H         59.07952        43.70058        -1.92101
O         57.01405        62.22328         0.94543
H         56.81833        61.54792         1.63601
O         68.55886        68.26968         1.56766
H         68.51687        67.39363         2.03330
O         66.19555        45.88367         2.86883
H         66.86083        46.50392         3.27716
O         63.47795        44.22632        -1.64613
H         64.04383        43.56620        -2.12200
O         67.22907        39.89015         1.39279
H         68.04401        40.31592         1.73700
O         68.53853        65.61185         2.15177
H         69.05661        64.93308         2.64722
O         48.86484        47.69073        -1.20276
H         49.69536        47.18872        -1.34994
O         67.30927        57.16137        -1.05965
H         66.51116        57.65286        -1.37026
O         66.94813        36.12378        -2.95677
H         67.00342        35.23517        -3.37051
O         54.79256        45.62768        -0.72314
H         54.90445        46.51406        -1.12581
O         67.43085        44.81251        -1.39773
H         66.58197        45.20572        -1.69458
O         57.41137        48.60384         3.13650
H         56.60744        49.05701         3.46988
O         55.02650        44.52720         2.75014
H         55.06064        43.63396         3.15081
H         37.27831        48.93961         0.36061
H         35.59230        49.73282        -1.25791
H         37.68081        53.46484        -1.74330
H         35.77860        52.03271        -2.24038
H         39.01681        47.97884         0.75545
H         39.12955        54.55792        -1.38340
H         41.13029        46.83095         0.48943
H         41.23356        55.68569        -1.66851
H         44.85572        44.68776         0.73514
H         42.75719        45.89777         0.66275
H         44.93951        57.94915        -1.48324
H         42.85355        56.71727        -1.49351
H         46.45722        43.76575         1.17223
H         46.69416        58.79136        -1.91121
H         48.55826        42.57966         1.56527
H         48.81900        59.93519        -2.01564
H         52.28475        40.53628         0.29442
H         50.18873        41.64747         0.79107
H         52.37261        62.35747        -1.35938
H         50.47907        60.91749        -1.91595
H         53.93830        39.53168         0.57187
H         54.18444        63.31912        -1.67253
H         55.87988        38.43101        -0.39349
H         56.34188        64.25681        -2.19014
H         59.68252        36.31132        -0.88560
H         57.61462        37.58567        -1.22080
H         60.11582        66.48551        -1.87322
H         58.03967        65.22574        -2.00393
H         61.27650        35.25972        -0.85847
H         61.70195        67.46148        -1.74966
H         63.36092        34.08494        -1.11979
H         63.77988        68.70336        -1.67670
H         67.12454        31.97096        -1.14496
H         65.04595        33.14841        -0.80222
H         67.51214        70.93045        -1.45877
H         65.41595        69.67218        -1.59196
H         68.71233        31.03106        -1.45292
H         68.96443        72.05015        -0.13191
H         72.99428        31.05043        -1.87824
H         70.82647        29.80846        -1.71322
H         73.02811        33.50640        -1.76780
H         73.04102        35.38264        -1.57204
H         73.06239        37.78671        -1.29344
H         73.09608        39.63683        -0.95525
H         73.13654        42.00738        -0.45585
H         73.10535        43.97261        -0.58614
H         73.07901        46.37637        -0.29133
H         72.85298        48.33137        -0.55408
H         72.98305        50.70220         0.00157
H         73.21480        52.47751         1.20714
H         73.18922        54.89103         0.76320
H         73.16676        56.66189         0.05491
H         73.22081        59.04550        -0.26767
H         73.16315        60.99653        -0.46049
H         73.23130        63.41017        -0.36958
H         73.24503        65.28223        -0.36098
H         73.21871        67.61628        -0.96052
H         73.24514        69.46881        -0.12072
H         73.25915        71.90533         0.32002
H         71.13253        73.21181         0.27446
