         244
 CSIRO Nanostructure Databank - Neutral Graphene Oxide Data Set
C          1.41750         2.34478        -1.87994
C          1.19427         3.17767        -0.76448
C          2.71223         2.01549        -2.21990
C          2.26877         3.74824        -0.09794
C          0.97086         6.54971         1.00286
C          1.04028         7.97501         0.90589
C          2.10376         5.79104         0.99455
C          2.21822         8.65265         0.72786
C          1.33649        10.85155         1.66894
C          1.49432        12.23061         1.79939
C          2.18370        10.12886         0.80374
C          2.60086        12.91557         1.24521
C          1.64159        15.18476         1.74973
C          1.63576        16.55427         1.53115
C          2.75922        14.36826         1.35495
C          2.77380        17.21717         1.02994
C          2.74881        18.57069         0.61472
C          3.81415         2.55587        -1.49843
C          3.62652         3.55620        -0.49086
C          5.09839         1.98929        -1.67048
C          4.78291         4.17677         0.12343
C          3.46221         6.36447         0.98748
C          3.52009         7.89073         0.80355
C          4.72617         5.50913         0.83414
C          4.85154         8.43082         0.38474
C          3.14379        10.87612         0.11327
C          3.52423        12.18037         0.45244
C          4.95706         9.68101        -0.24165
C          4.91750        12.67371         0.23080
C          3.92259        14.97495         0.89373
C          4.07817        16.47282         1.04267
C          5.09434        14.17665         0.49214
C          5.12415        17.08078         0.15942
C          3.85124        19.17188         0.04040
C          5.06114        18.42631        -0.20963
C          6.14787         2.39154        -0.86996
C          6.03518         3.55771        -0.05472
C          7.39032         1.53920        -0.84521
C          7.29191         4.09710         0.62056
C          6.05131         6.27993         0.89744
C          6.05975         7.75612         0.67795
C          7.30818         5.60098         0.53855
C          7.30269         8.41590         0.40050
C          6.12182        10.45613        -0.27403
C          5.99876        11.94399        -0.62240
C          7.32070         9.78050        -0.01492
C          7.34629        12.64316        -0.46971
C          6.26231        14.83643        -0.09714
C          6.42125        16.33555         0.04899
C          7.37797        14.08233        -0.47698
C          7.30740        16.87608        -1.07055
C          6.21422        19.08420        -0.75788
C          7.39994        18.38469        -1.03302
C          8.64676         2.35435        -0.72114
C          8.61217         3.55414         0.10816
C          9.75967         1.98222        -1.40956
C          9.80938         4.16590         0.48157
C          8.54120         6.29775         1.06298
C          8.56728         7.74120         0.61326
C          9.85964         5.55204         0.88589
C          9.78031         8.42368         0.52277
C          8.59728        10.41902        -0.49849
C          8.55227        11.93549        -0.46182
C          9.83679         9.80825         0.11517
C          9.78783        12.62448        -0.56827
C          8.61948        14.76639        -0.77269
C          8.63778        16.16835        -1.01790
C          9.82986        14.02824        -0.76652
C          9.83147        16.84838        -1.24851
C          8.60849        19.01986        -1.32803
C          9.84498        18.29896        -1.45688
C         11.03944         2.74163        -1.18013
C         11.00499         3.20668         0.27891
C         12.30577         1.97852        -1.48244
C         12.33567         3.72363         0.69453
C         11.02120         6.32465         1.11551
C         11.02647         7.75588         0.83967
C         12.30478         5.73804         1.43468
C         12.23311         8.47068         0.78137
C         11.03159        10.49764         0.09032
C         11.04662        11.86206        -0.48868
C         12.28575         9.86779         0.45431
C         12.33355        12.61384        -0.51697
C         11.07743        14.74051        -0.90151
C         11.07596        16.13925        -1.16767
C         12.30860        14.07884        -0.70790
C         12.31317        16.81507        -1.34217
C         11.03605        18.95401        -1.68939
C         12.33959        18.23178        -1.87319
C         13.50374         2.43025        -0.97932
C         13.50038         3.51483         0.02378
C         14.75045         1.72791        -1.13733
C         14.76588         4.20393         0.37129
C         13.51962         6.34764         1.23151
C         13.50256         7.82089         1.16427
C         14.77832         5.60586         0.97329
C         14.79151         8.58305         1.19948
C         13.51518        10.57271         0.40535
C         13.49137        12.07749         0.28832
C         14.78487         9.95643         0.63830
C         14.79014        12.72750        -0.12801
C         13.52646        14.77791        -0.75859
C         13.51981        16.14926        -1.12303
C         14.78253        14.07125        -0.52454
C         14.81469        16.86650        -1.43284
C         13.53320        18.98785        -1.34459
C         14.71175        18.34700        -1.12983
C         15.95329         2.30733        -0.72872
C         15.93852         3.81398        -0.53480
C         17.13144         1.56377        -0.53506
C         17.25370         4.41099        -0.06663
C         15.95481         6.46912         0.50131
C         16.09473         7.77801         1.32322
C         17.23658         5.65658         0.51309
C         17.32142         8.54020         0.86649
C         15.99977        10.61517         0.38834
C         16.01562        12.01677         0.00604
C         17.27249         9.91076         0.50988
C         17.22997        12.70854        -0.16738
C         16.01388        14.79872        -0.59469
C         16.02517        16.20216        -0.82421
C         17.23914        14.11586        -0.34212
C         17.18377        16.94371        -0.56599
C         15.91750        19.04503        -0.74238
C         17.10491        18.39762        -0.53744
C         18.36735         2.18358        -0.22936
C         18.45939         3.60469        -0.20542
C         19.54766         1.41454         0.04903
C         19.75282         4.19932        -0.17060
C         18.39180         6.35445         1.19231
C         18.53063         7.81225         0.80391
C         19.96456         5.56963        -0.52207
C         19.73708         8.45532         0.45268
C         18.49169        10.57243         0.25158
C         18.51853        11.95897        -0.32649
C         19.72634         9.87902         0.31275
C         19.74286        12.75386         0.05046
C         18.46230        14.86297        -0.24280
C         18.41996        16.27082        -0.26949
C         19.71156        14.16774        -0.00435
C         19.63784        17.03372        -0.08768
C         18.30304        19.21051        -0.11235
C         19.60673        18.45171        -0.10597
C         20.72651         2.02477         0.40065
C         20.86603         3.44841         0.31202
C         22.03123         4.14914         0.70435
C         21.04858         6.28091         0.02201
C         21.00507         7.78775        -0.09786
C         22.06712         5.54185         0.66083
C         22.22932         8.52099         0.36507
C         20.97015        10.61392         0.29355
C         20.95597        12.05724         0.27457
C         22.19023         9.87765         0.47365
C         22.13992        12.82549         0.46427
C         20.91315        14.91461         0.16371
C         20.88347        16.36249         0.08272
C         22.11595        14.20315         0.40406
C         22.06685        17.13422         0.17075
C         20.79277        19.17941        -0.02132
C         22.02349        18.51865         0.09928
O          1.96466         4.41031         1.10003
O          3.62546         7.27273         2.12444
O          3.83967        10.20138        -0.89280
O          5.47161        13.12474         1.48715
O         19.05202         5.84367         2.07992
O         12.31008         4.41456         1.91167
O         11.91454        11.88592        -1.71052
O          5.44803         5.62100         2.10651
O         15.10598         4.42996         1.76523
O         14.01501         8.47141         2.44190
O          4.62028        16.63576         2.44913
H          3.98720        16.17689         3.04450
O         15.62882         4.39091        -1.84925
H         16.33947         4.12055        -2.46858
O          7.44244         0.66778        -1.97613
H          7.53420         1.21561        -2.78217
O          8.36533         6.32235         2.52761
H          8.14109         5.39727         2.78999
O         13.22317        12.56609         1.65069
H         13.89174        12.16908         2.24868
O         10.74945         2.04631         1.11364
H         10.83476         2.33231         2.04776
O          7.12743        16.53286         1.30833
H          6.45093        16.48110         2.02894
O          7.25623         3.70822         2.04367
H          6.45196         4.15456         2.41881
O         15.66251         6.91177        -0.84481
H         15.61825         6.11180        -1.43249
O          8.65465        10.07005        -1.93239
H          9.53268        10.35912        -2.26503
O          6.65210        16.51660        -2.32007
H          7.17250        16.90056        -3.05587
O          5.59992        12.07945        -2.00351
H          6.23265        11.57077        -2.55290
O         11.04018         3.95023        -2.00206
H         11.17649         3.67994        -2.93377
O         16.31206         7.42105         2.69548
H         15.45425         7.55573         3.16781
O         15.00089        16.75545        -2.88288
H         14.23876        17.23609        -3.29707
O         18.65002        11.73964        -1.79456
H         18.57974        12.62045        -2.22223
O         18.40902        20.40355        -0.90251
H         18.50896        20.13906        -1.83982
O         20.90378         8.05204        -1.56333
H         20.86448         9.02791        -1.67776
O         19.10489         6.15129        -1.39078
H         19.49595         7.02078        -1.67536
O         12.56328        18.10819        -3.34063
H         11.79137        17.62742        -3.70924
H          0.56616         1.91155        -2.42190
H          0.17679         3.35417        -0.39329
H          2.91321         1.28643        -3.01718
H         -0.00724         6.05871         1.07839
H          0.09829         8.53986         0.94184
H          0.55354        10.33414         2.24034
H          0.78725        12.77542         2.43905
H          0.72278        14.70398         2.10932
H          0.70832        17.12455         1.69147
H          1.81384        19.13999         0.73017
H          5.22852         1.13822        -2.35443
H          3.80571        20.22508        -0.27121
H          7.32141         0.87765         0.06240
H          6.19566        20.18085        -0.85399
H          9.72952         1.11278        -2.08416
H          8.64022        20.11967        -1.37633
H         12.27615         1.11354        -2.16243
H         11.03045        20.04522        -1.83453
H         14.73288         0.68359        -1.48512
H         13.45573        20.07806        -1.21100
H         17.09020         0.46741        -0.62260
H         15.87621        20.13940        -0.63089
H         19.46630         0.31781         0.05988
H         18.12010        19.55929         0.94507
H         21.58972         1.42265         0.71904
H         22.88235         3.59191         1.11939
H         22.93476         6.06420         1.08747
H         23.18184         7.98703         0.48384
H         23.11816        10.41737         0.70814
H         23.09842        12.32567         0.65596
H         23.05763        14.74845         0.55072
H         23.04101        16.64160         0.28773
H         20.75099        20.27720        -0.04893
H         22.95382        19.10037         0.15898
