         224
 CSIRO Nanostructure Databank - Neutral Graphene Oxide Data Set
C        -11.09046         0.70190         0.11949
C         -9.89164         1.51208         0.44654
C         -8.60072         0.76156         0.44432
C         -7.33241         1.54746         0.31305
C         -6.04931         0.80304         0.23433
C         -4.80923         1.47826        -0.24242
C         -3.51650         0.80092         0.07535
C         -2.24728         1.54491        -0.24672
C         -1.05464         0.75038        -0.61262
C          0.03436         1.39282        -1.15785
C          1.26714         0.63120        -1.50910
C          2.59391         1.36406        -1.64144
C          3.84816         0.64732        -1.26103
C          4.99655         1.35326        -0.94835
C          6.31848         0.66429        -0.84114
C          7.50421         1.36981        -0.26621
C          8.68653         0.60583         0.19308
C          9.79901         1.32598         0.70153
C         11.01277         0.58971         0.97884
C         -9.85954         2.99694         0.33266
C         -8.69992         3.70903         0.11630
C         -7.43838         2.95988        -0.16102
C         -6.16355         3.68325        -0.41209
C         -4.84250         2.94129        -0.47150
C         -3.56088         3.70839        -0.34991
C         -2.29873         2.98414        -0.60982
C         -1.16748         3.68021        -0.98455
C          0.02996         2.87292        -1.37660
C          1.32800         3.60511        -1.59508
C          2.68000         2.89177        -1.84660
C          3.86913         3.53692        -1.17030
C          4.97667         2.81181        -0.82717
C          6.06697         3.49857        -0.08084
C          7.30352         2.72760         0.31768
C          8.51267         3.45003         0.77245
C          9.72040         2.71705         0.93234
C         -8.63908         5.14461        -0.05167
C         -7.45445         5.85014        -0.26873
C         -6.11175         5.16379        -0.10680
C         -4.99274         5.79067        -0.95336
C         -3.62255         5.17659        -0.60524
C         -2.36554         5.85858        -1.00999
C         -1.17600         5.12437        -1.17671
C          0.09568         5.87089        -1.42737
C          1.37614         5.08665        -1.38381
C          2.61326         5.66169        -1.55326
C          3.90724         5.01384        -1.27687
C          5.05520         5.80937        -0.56317
C          6.10027         4.95825         0.05590
C          7.19234         5.55176         0.75817
C          8.37636         4.79206         1.09065
C         -7.38145         7.26905        -0.31197
C         -6.15975         7.98103        -0.41956
C         -4.96346         7.28897        -0.79526
C         -3.73104         7.89316        -1.08537
C         -2.46156         7.27525        -1.10747
C         -1.25919         8.19531        -0.92232
C          0.05701         7.39850        -1.05480
C          1.22958         7.97044        -0.34915
C          2.52960         7.63356        -0.68707
C          3.67398         7.86899         0.14166
C          4.89397         7.18106         0.00757
C          6.12903         7.86168         0.56941
C          7.20650         6.92479         1.00857
C         -6.18173         9.34544         0.10389
C         -5.10700        10.08550         0.51709
C         -3.76612         9.72151         0.09945
C         -2.61418         9.60155         0.84635
C         -1.38843         8.98859         0.39384
C         -0.27451         9.18596         1.19189
C          1.03720         8.76711         0.82588
C          2.17150         9.20513         1.55363
C          3.46746         8.80081         1.23245
C          4.60173         9.21075         2.02719
C          5.85128         8.81833         1.69789
C        -11.04135        -0.65933         0.08277
C         -9.80560        -1.41993         0.17806
C         -8.54518        -0.64621        -0.11791
C         -7.25753        -1.36693         0.22708
C         -6.05287        -0.67877         0.23890
C         -4.78543        -1.36136         0.25065
C         -3.55895        -0.67773         0.08410
C         -2.32992        -1.38367        -0.05223
C         -1.10725        -0.69682        -0.38782
C          0.07247        -1.44287        -0.52964
C          1.25969        -0.88968        -1.29275
C          2.59975        -1.45579        -0.87968
C          3.78806        -0.79538        -1.04117
C          5.06819        -1.55611        -0.90170
C          6.36988        -0.83052        -0.83097
C          7.55170        -1.52986        -0.26908
C          8.70819        -0.81046         0.09155
C          9.92884        -1.53253         0.40660
C         11.08084        -0.76244         0.81260
C         -9.75245        -2.78031         0.37260
C         -8.50514        -3.50201         0.48390
C         -7.27344        -2.78420         0.40998
C         -6.03218        -3.45282         0.59609
C         -4.80247        -2.78425         0.43761
C         -3.57158        -3.52550         0.34552
C         -2.35998        -2.81329         0.00715
C         -1.15463        -3.53076        -0.16231
C          0.05041        -2.84213        -0.33651
C          1.31111        -3.60486        -0.27027
C          2.59765        -2.89636        -0.49645
C          3.84188        -3.69900        -0.83560
C          5.00433        -2.90556        -0.21747
C          6.31271        -3.65038        -0.19078
C          7.52128        -2.96054        -0.11968
C          8.77651        -3.68503         0.07718
C          9.97049        -2.91285         0.28696
C         -8.47417        -4.91412         0.66777
C         -7.29421        -5.60827         0.94227
C         -6.04725        -4.83948         1.06550
C         -4.70126        -5.59519         1.14774
C         -3.56440        -4.92039         0.53367
C         -2.45082        -5.72657         0.01455
C         -1.17641        -4.99568        -0.33280
C          0.08825        -5.75636        -0.34671
C          1.28147        -5.08593        -0.34424
C          2.54972        -5.78430        -0.27999
C          3.76074        -5.13583        -0.37101
C          5.00817        -5.84028        -0.12676
C          6.23599        -5.07129         0.14108
C          7.58332        -5.86284         0.21422
C          8.80506        -5.07429         0.05056
C         -7.23022        -7.04321         1.00348
C         -6.05243        -7.75854         1.07585
C         -4.70670        -7.10880         1.35786
C         -3.55713        -7.84620         0.70959
C         -2.39150        -7.18758         0.27596
C         -1.22278        -7.91198        -0.01832
C          0.00202        -7.24538        -0.62327
C          1.26798        -7.97575        -0.26674
C          2.51578        -7.23698         0.12898
C          3.77127        -7.94731        -0.32994
C          5.04527        -7.22540        -0.10281
C          6.28948        -7.96531        -0.07604
C          7.50274        -7.30343        -0.03859
C         -6.04223        -9.20202         1.04725
C         -4.88135        -9.91519         0.94774
C         -3.60066        -9.26618         0.72126
C         -2.43811        -9.99432         0.43853
C         -1.21442        -9.33606         0.13183
C         -0.00329       -10.06211        -0.01789
C          1.25773        -9.38904        -0.12814
C          2.47961       -10.10667        -0.03173
C          3.75357        -9.45794        -0.33558
C          5.06124       -10.12344        -0.16664
C          6.22091        -9.42479        -0.11214
O         -2.71175         1.35878         1.15998
O          1.04878        -1.50008        -2.61073
H          1.50550        -0.91418        -3.26238
O         -9.26294         0.96952         1.70685
O          4.04530        -3.70743        -2.26190
H          3.35353        -4.26019        -2.68069
O          5.90324        -1.47548        -2.08186
O          2.96667         3.10151        -3.24602
H          2.19054         2.75555        -3.74446
O          6.84132        -5.44016         1.41892
O         -8.50853        -0.45050        -1.57004
H         -8.49555        -1.33298        -1.99676
O          2.73955         7.00813        -1.91951
O          1.87742         0.85449        -2.82383
O         -3.73506         9.29137        -1.23007
O          3.68078        -8.63020        -1.59716
O         -6.49483         1.40657         1.51127
O         -5.28104        -4.94986         2.32356
O          6.66409         8.65578        -0.55980
H          6.77829         8.04576        -1.32006
O          5.01209         5.59720        -2.02213
O         -4.49008        -7.32835         2.78871
H         -4.95699        -6.59363         3.25272
O          0.44538         3.27829        -2.73318
O         -5.25073         5.51498        -2.35022
H         -5.76512         4.68281        -2.44153
O         -1.21126         9.18004        -1.97603
H         -0.95818         8.70400        -2.79757
O          6.19730         2.80442         1.26756
O          2.57685        -7.25963         1.60065
H          1.86046        -6.68341         1.94196
O         -0.17938        -7.34462        -2.08095
H         -0.97822        -6.80221        -2.28991
O          4.70237        -2.61302         1.16856
H          4.51565        -3.45338         1.63864
O         -3.50071         4.65145         0.76149
O         -5.79308         5.34069         1.29202
H         -6.51954         4.96068         1.82818
O          2.14307        -3.13156         0.87923
O         -2.11627        -5.41829        -1.40123
O          7.31413         1.30288        -1.72586
O          0.15115         6.94042        -2.42708
O         -7.00265         3.27414        -1.53814
O         -4.81970         2.00447        -1.60532
H         12.01739        -1.29847         1.02600
H         11.89376         1.14944         1.32553
H         10.61195         3.24641         1.30009
H          9.23194         5.34055         1.51206
H          8.07994         7.36364         1.51364
H          6.71588         9.17068         2.27955
H          4.42677         9.88002         2.88266
H          2.01946         9.87033         2.41630
H         -0.37892         9.79672         2.10222
H         -2.61936         9.98534         1.87842
H         -5.26941        10.95829         1.16849
H         -7.17870         9.69758         0.41699
H         -8.30502         7.84409        -0.13693
H         -9.58745         5.70403        -0.01900
H        -10.81385         3.53818         0.43015
H        -12.05490         1.21747        -0.00362
H        -11.97838        -1.22566        -0.03720
H        -10.68772        -3.34518         0.51089
H         -9.41915        -5.47529         0.60640
H         -8.17673        -7.59724         0.89629
H         -7.00738        -9.72976         1.09074
H         -4.91305       -11.01476         0.93881
H         -2.46172       -11.09378         0.47322
H         -0.01981       -11.15785         0.07418
H          2.46535       -11.18025         0.20830
H          5.07989       -11.22190        -0.09963
H          7.17238        -9.97016        -0.01946
H          8.43759        -7.86604        -0.18461
H          9.77261        -5.59843         0.01859
H         10.91673        -3.44555         0.46532
