         620
 CSIRO Nanostructure Databank - Neutral Graphene Oxide Data Set
C         22.99039        27.35007        -0.16607
C         23.04494        28.67476        -0.39366
C         23.03151        31.75056        -0.16463
C         22.96452        33.03045         0.24271
C         22.99686        35.98564         0.63575
C         23.00617        37.37993         0.64581
C         23.03538        40.29001         0.99538
C         23.04556        41.66369         1.04157
C         23.02138        44.60655         0.81191
C         23.03068        45.98652         0.88478
C         25.46551        24.52080         0.24123
C         24.27596        25.16495         0.09184
C         25.46998        27.36229         0.54902
C         24.15459        26.59858         0.35230
C         25.51930        28.78529         0.18231
C         24.30389        29.44481        -0.29359
C         25.52236        31.62936         0.29025
C         24.30089        30.99806        -0.21058
C         25.47533        33.04128         0.71713
C         24.15521        33.77076         0.72746
C         25.43484        35.93834         0.59947
C         24.19034        35.25305         0.64420
C         25.44241        37.36612         0.53562
C         24.21023        38.09600         0.61429
C         25.41337        40.26115         0.49913
C         24.21991        39.55387         0.69938
C         25.46855        41.68392         0.63736
C         24.24566        42.41323         0.86861
C         25.47276        44.57806         1.01442
C         24.21835        43.84241         0.87503
C         25.48993        46.04226         0.82478
C         24.24983        46.73374         0.88303
C         25.45852        48.84206         0.78104
C         24.26638        48.15281         0.87670
C         27.99066        23.06389         0.55971
C         27.96165        24.47613         0.55180
C         26.70962        25.20901         0.50095
C         27.95938        27.34763         0.63950
C         26.73190        26.60724         0.54613
C         27.93033        28.75726         0.62643
C         26.72430        29.47999         0.30915
C         27.96025        31.66306         0.58985
C         26.72608        30.93490         0.35428
C         27.95011        33.09610         0.56137
C         26.72504        33.81261         0.60467
C         27.92125        35.94902         0.44008
C         26.69270        35.22600         0.56136
C         27.90915        37.37532         0.30258
C         26.67417        38.05823         0.34303
C         27.90285        40.24988        -0.16065
C         26.61557        39.50848         0.08335
C         27.91647        41.70563         0.11656
C         26.71713        42.36207         0.50793
C         28.00579        44.53149         0.47916
C         26.79471        43.78686         0.82827
C         27.89677        45.99317         0.10853
C         26.68958        46.74294         0.61788
C         27.92864        48.88894         0.34099
C         26.69514        48.16266         0.58736
C         27.99707        50.29897         0.38017
C         30.42925        23.04188         0.53026
C         29.18722        22.36890         0.55760
C         30.43347        24.46677         0.55472
C         29.19656        25.18338         0.58964
C         30.43830        27.29692         0.75688
C         29.20936        26.61718         0.68508
C         30.44702        28.72582         1.10249
C         29.13694        29.50936         0.99592
C         30.40501        31.68866         0.79794
C         29.18433        30.97858         0.78457
C         30.41741        33.10253         0.60725
C         29.18287        33.81657         0.54388
C         30.39567        35.95792         0.38299
C         29.16238        35.24128         0.44594
C         30.39468        37.39033         0.23276
C         29.16288        38.09177         0.15684
C         30.38191        40.21567        -0.14356
C         29.18077        39.50708        -0.04113
C         30.33880        41.68264        -0.51938
C         29.13117        42.39454         0.05013
C         30.45885        44.52259         0.18555
C         29.15809        43.81459         0.19734
C         30.45426        46.05087         0.19470
C         29.17177        46.76793         0.16854
C         30.35979        48.88543        -0.22806
C         29.15159        48.17158         0.07801
C         30.39618        50.28894        -0.14860
C         29.19026        50.97416         0.18638
C         32.90358        20.20328         0.43402
C         31.71350        20.89727         0.49445
C         32.90901        23.02289         0.39272
C         31.68134        22.31525         0.47566
C         32.90797        24.46326         0.40426
C         31.67753        25.17969         0.51215
C         32.91370        27.32620         0.50735
C         31.67970        26.60512         0.59403
C         32.94969        28.75985         0.58382
C         31.74136        29.47659         1.04409
C         32.92983        31.68200         0.50463
C         31.70562        30.99118         0.95110
C         32.91241        33.10050         0.41493
C         31.65388        33.82971         0.53725
C         32.87255        36.00657         0.50913
C         31.61870        35.23800         0.46376
C         32.88017        37.44099         0.20097
C         31.63229        38.11669         0.12086
C         32.87158        40.23899        -0.17086
C         31.62500        39.52865        -0.06914
C         32.84499        41.67864        -0.36670
C         31.66067        42.39897        -0.33573
C         32.85769        44.58572        -0.36266
C         31.68281        43.83886        -0.25314
C         32.85289        46.03101        -0.38615
C         31.66386        46.72732        -0.26100
C         32.77457        48.82985        -1.10087
C         31.46546        48.08173        -0.88575
C         32.80939        50.35865        -0.92749
C         31.63386        51.02519        -0.35051
C         33.01875        53.00042         0.03865
C         31.79539        52.33697         0.11525
C         35.44632        18.73247         0.26376
C         35.39492        20.14674         0.27779
C         34.14721        20.87838         0.33879
C         35.38527        23.01461         0.19252
C         34.14353        22.30214         0.31295
C         35.37600        24.46618         0.17646
C         34.13369        25.17641         0.31133
C         35.35569        27.33123         0.20746
C         34.13254        26.60695         0.33571
C         35.35062        28.75528         0.10741
C         34.11934        29.47878         0.31433
C         35.31021        31.62981        -0.06292
C         34.12430        30.94282         0.27648
C         35.32769        33.05819        -0.10579
C         34.11968        33.77926         0.15492
C         35.31746        36.00532        -0.22349
C         34.17584        35.24179         0.28615
C         35.35177        37.38043        -0.07767
C         34.11549        38.12957         0.09267
C         35.36625        40.32431        -0.03863
C         34.09366        39.55588        -0.05529
C         35.38899        41.72652        -0.45959
C         34.10083        42.38209        -0.68367
C         35.38583        44.62778        -0.62650
C         34.10245        43.90340        -0.73892
C         35.34493        46.02041        -0.65488
C         34.09394        46.74630        -0.70279
C         35.27933        48.83140        -1.42174
C         34.05128        48.10688        -0.98837
C         35.28421        50.33382        -1.46999
C         34.11544        51.03397        -0.86672
C         35.48876        53.09623        -0.40427
C         34.17924        52.35486        -0.46432
C         35.41459        54.52331        -0.89145
C         37.89184        18.74013         0.19428
C         36.65339        18.05548         0.22514
C         37.87397        20.15442         0.15471
C         36.62469        20.86236         0.20932
C         37.86016        22.99247        -0.07429
C         36.59000        22.28964         0.13817
C         37.84839        24.50216        -0.11302
C         36.57183        25.19736         0.08329
C         37.81695        27.34287         0.00342
C         36.58901        26.62470         0.10736
C         37.80326        28.75803        -0.12038
C         36.56211        29.43712        -0.13793
C         37.80997        31.59228        -0.42450
C         36.50618        30.86531        -0.58789
C         37.75254        33.03169        -0.71538
C         36.51104        33.76814        -0.44163
C         37.74160        35.96015        -1.03795
C         36.47731        35.21905        -0.69630
C         37.67998        37.49831        -1.08125
C         36.72636        38.05370        -0.01522
C         37.86271        40.29774        -0.59008
C         36.69352        39.57608        -0.06969
C         37.83462        41.69846        -0.70595
C         36.58787        42.43285        -0.60903
C         37.85416        44.55700        -0.88486
C         36.61755        43.88406        -0.70434
C         37.92149        46.03078        -0.79472
C         36.61336        46.77094        -0.67199
C         37.98535        48.75325        -1.51429
C         36.60818        48.14553        -1.25941
C         37.97433        50.28430        -1.91116
C         36.62522        51.02590        -1.57193
C         37.86769        53.11154        -0.99190
C         36.68034        52.40837        -1.04036
C         37.84767        54.55541        -0.83691
C         36.56463        55.21751        -1.02447
C         40.40210        15.92183         0.53372
C         39.20035        16.60372         0.41473
C         40.39102        18.71900         0.32719
C         39.16607        18.01211         0.28589
C         40.42988        20.17124        -0.07403
C         39.12311        20.89467         0.16181
C         40.35135        23.02557         0.44618
C         39.11763        22.26168         0.16612
C         40.32771        24.53485         0.42389
C         39.08832        25.25504         0.11077
C         40.32865        27.36773         0.04441
C         39.07687        26.63728         0.05727
C         40.28472        28.79745        -0.11003
C         39.05478        29.48451        -0.19768
C         40.28573        31.66428        -0.29690
C         39.02711        30.92785        -0.32782
C         40.30764        33.09605        -0.47220
C         39.04916        33.79145        -0.83232
C         40.29690        35.95136        -0.98702
C         39.01978        35.28565        -0.55570
C         40.25674        37.37209        -1.47737
C         39.04264        38.15420        -1.00450
C         40.27479        40.28894        -1.10768
C         39.05435        39.54254        -0.92390
C         40.26556        41.67218        -1.09300
C         39.03984        42.42141        -1.02105
C         40.29353        44.55933        -1.52283
C         39.04276        43.83020        -1.14913
C         40.35887        46.09222        -1.72310
C         39.05836        46.86585        -1.38247
C         40.38952        48.89468        -0.97401
C         39.20227        48.25160        -0.75397
C         40.50122        50.34172        -1.39437
C         39.16807        51.03920        -1.30865
C         40.33121        53.12854        -0.65364
C         39.13337        52.38785        -1.04020
C         40.26551        54.51010        -0.49846
C         39.04457        55.25587        -0.65697
C         40.20517        57.41309        -0.28382
C         39.07403        56.70416        -0.51496
C         42.88549        15.91221         0.63995
C         41.62226        16.62305         0.61587
C         42.84851        18.78920         0.80703
C         41.60154        18.03749         0.54500
C         42.88394        20.25490         0.56923
C         41.67169        20.93345         0.35224
C         42.85232        23.09550         0.53780
C         41.65519        22.33988         0.39300
C         42.79845        24.55096         0.48463
C         41.60962        25.25090         0.31879
C         42.79552        27.41500         0.01267
C         41.55866        26.68473         0.12871
C         42.76449        28.84189        -0.10777
C         41.52346        29.52822        -0.13797
C         42.75002        31.68133         0.04522
C         41.48892        30.95616        -0.15326
C         42.74573        33.20817        -0.09504
C         41.47655        33.85278        -0.44567
C         42.76371        35.96072        -0.88277
C         41.49248        35.26841        -0.80953
C         42.76055        37.39593        -1.04216
C         41.55822        38.07968        -1.21663
C         42.83617        40.26767        -1.16556
C         41.53521        39.54244        -1.33490
C         42.80785        41.69012        -0.74937
C         41.52020        42.41891        -0.83888
C         42.84960        44.57119        -0.91702
C         41.59435        43.85068        -1.23861
C         42.81157        45.99823        -0.81265
C         41.60315        46.68212        -1.01733
C         42.92883        48.88555        -0.68502
C         41.64687        48.13797        -1.06961
C         42.81470        50.31536        -0.34231
C         41.64697        51.02813        -0.67535
C         42.71372        53.06119         0.13760
C         41.57659        52.41176        -0.42173
C         42.61732        54.51162         0.43440
C         41.52095        55.25566        -0.25221
C         42.67557        57.43741         0.44093
C         41.52064        56.75192        -0.19353
C         44.07784        16.55382         0.68765
C         45.44436        18.76299         0.76404
C         44.14687        18.00917         0.92800
C         45.40955        20.28412         0.74521
C         44.09320        20.98886         0.68625
C         45.42490        23.09874         0.83551
C         44.08817        22.39477         0.61224
C         45.38338        24.60577         0.58248
C         44.05793        25.32273         0.50623
C         45.25893        27.41959        -0.10789
C         44.02365        26.73121         0.06574
C         45.24261        28.84941        -0.22355
C         44.00985        29.55975        -0.17476
C         45.23003        31.70428        -0.25838
C         44.02179        30.97648        -0.15276
C         45.22670        33.14841        -0.37411
C         44.01596        33.87238        -0.41772
C         45.24397        35.97485        -0.71667
C         43.99277        35.26928        -0.69789
C         45.25191        37.39994        -0.76021
C         44.02614        38.11360        -0.91184
C         45.26528        40.24530        -0.66874
C         44.06728        39.51652        -0.90489
C         45.26706        41.69164        -0.60699
C         44.07992        42.42734        -0.75014
C         45.25315        44.54179        -0.30669
C         44.03914        43.85057        -0.66411
C         45.22515        45.95455        -0.12457
C         44.02944        46.69562        -0.38008
C         45.18694        48.77750         0.36479
C         44.05566        48.09380        -0.19077
C         45.13252        50.20300         0.58211
C         43.93549        50.95155         0.25437
C         45.00631        53.04353         1.21323
C         43.87128        52.35601         0.47649
C         45.08956        54.53370         0.95516
C         43.81346        55.28105         0.90509
C         43.77170        56.76731         0.83957
C         47.66575        18.83209        -0.31315
C         46.58194        18.12096         0.08580
C         47.73077        20.27471        -0.22400
C         46.58146        20.99822         0.17540
C         47.70549        23.11675        -0.33022
C         46.57178        22.40228         0.13000
C         47.66010        24.55765        -0.45279
C         46.54682        25.27704        -0.04762
C         47.69548        27.42489        -0.47968
C         46.48474        26.70860        -0.21772
C         47.69519        28.84785        -0.43688
C         46.46524        29.56801        -0.31685
C         47.69950        31.70432        -0.46751
C         46.46220        30.99371        -0.34859
C         47.70308        33.12855        -0.55177
C         46.46821        33.84098        -0.53450
C         47.71132        35.97961        -0.64080
C         46.46914        35.26530        -0.63158
C         47.71504        37.39598        -0.56641
C         46.47848        38.11091        -0.61539
C         47.70270        40.24219        -0.26186
C         46.48240        39.53418        -0.52881
C         47.67535        41.64090        -0.09422
C         46.48225        42.38188        -0.28980
C         47.64595        44.50549         0.26818
C         46.44729        43.80250        -0.10345
C         47.61388        45.90070         0.46577
C         46.41527        46.64092         0.30040
C         47.61766        48.72344         0.95319
C         46.38821        48.04444         0.57666
C         47.53872        50.16513         1.42877
C         46.30368        50.91201         0.97736
C         47.55052        53.04382         0.98402
C         46.31696        52.31158         1.03465
C         47.52546        54.42919         0.88801
C         46.30066        55.15744         0.84879
C         50.16258        20.29535        -0.76340
C         48.91960        20.99133        -0.56554
C         50.12553        23.13370        -0.98109
C         48.90370        22.40590        -0.64480
C         50.09055        24.50924        -1.14595
C         48.77642        25.26128        -1.19410
C         50.08901        27.43546        -0.95443
C         48.89407        26.72509        -0.80450
C         50.13222        28.84335        -0.74257
C         48.92300        29.55553        -0.54587
C         50.15645        31.69412        -0.61540
C         48.92519        30.98847        -0.52116
C         50.15278        33.10239        -0.73171
C         48.94205        33.82798        -0.70606
C         50.16003        35.99645        -0.78470
C         48.94898        35.27178        -0.72823
C         50.18681        37.39686        -0.55522
C         48.95117        38.10538        -0.42685
C         50.17956        40.18399         0.03740
C         48.94415        39.50874        -0.19252
C         50.18205        41.62156         0.21558
C         48.87355        42.31043         0.52395
C         50.09676        44.53044         0.38058
C         48.88456        43.80627         0.37337
C         50.12694        45.91740         0.59908
C         48.83327        46.53717         1.07402
C         50.09155        48.70077         1.36416
C         48.80461        48.03810         1.03563
C         50.08747        50.23937         1.41117
C         48.81641        50.93808         1.19294
C         50.07837        52.97949         0.79771
C         48.81953        52.30254         0.97281
C         51.32899        20.96427        -0.99508
C         52.58730        23.04975        -1.40251
C         51.37329        22.39140        -1.12959
C         52.59454        24.50135        -1.67509
C         51.29134        25.24775        -1.59438
C         52.60775        27.49281        -1.35054
C         51.30333        26.76014        -1.48602
C         52.60963        28.85936        -0.78289
C         51.38686        29.55897        -0.72124
C         52.64321        31.66881        -0.56677
C         51.39964        30.97558        -0.62524
C         52.69215        33.08729        -0.74094
C         51.42273        33.78185        -1.04717
C         52.71223        36.02800        -1.05435
C         51.40864        35.29865        -1.12888
C         52.70518        37.44671        -0.62041
C         51.43357        38.10300        -0.43713
C         52.66276        40.14236         0.24663
C         51.39882        39.46997        -0.07610
C         52.64449        41.66211         0.37191
C         51.35342        42.33802         0.20714
C         52.65002        44.55843         0.14584
C         51.34477        43.80840         0.07244
C         52.60990        45.98056         0.52665
C         51.36124        46.64371         0.67877
C         52.57273        48.75754         1.12415
C         51.35876        48.03345         1.04522
C         52.56850        50.19970         1.22123
C         51.35448        50.93043         1.17014
C         51.28250        52.32000         0.87142
C         55.05742        23.05773        -1.40031
C         53.85250        22.38811        -1.45805
C         55.14512        24.47271        -1.22369
C         53.91942        25.24792        -1.52955
C         54.98149        27.32320        -0.43657
C         53.90663        26.73644        -1.30284
C         55.04300        28.79537        -0.23028
C         53.83314        29.52104        -0.48144
C         55.06944        31.62102        -0.04950
C         53.84832        30.94151        -0.35587
C         55.09098        33.05996        -0.18345
C         53.91007        33.75950        -0.62341
C         55.20583        35.94157        -0.46752
C         53.99366        35.21614        -0.87566
C         55.24061        37.43092        -0.75952
C         53.92133        38.12023        -0.44717
C         55.13968        40.22952         0.06362
C         53.94237        39.49435        -0.07027
C         55.13337        41.66006         0.25681
C         53.91524        42.39613         0.25033
C         55.11823        44.51818         0.48524
C         53.91160        43.80174         0.30193
C         55.08586        45.94573         0.67488
C         53.83931        46.65513         0.74496
C         55.05856        48.77673         1.08974
C         53.82876        48.06794         0.99283
C         55.01441        50.19785         1.24555
C         53.82545        50.87799         1.27369
C         57.60307        24.49568        -0.79069
C         56.31851        25.12859        -0.82966
C         57.42448        27.20544         0.18348
C         56.22469        26.49582        -0.26992
C         57.31636        28.53630         0.67861
C         56.16936        29.41659         0.34968
C         57.32372        31.68060         0.88851
C         56.19883        30.88097         0.42984
C         57.41476        33.08620         0.58375
C         56.28247        33.78640         0.06914
C         57.56823        35.95296         0.18603
C         56.32491        35.23768        -0.06961
C         57.61253        37.38500         0.11063
C         56.42435        38.13058        -0.14080
C         57.62083        40.23543         0.30805
C         56.40156        39.51934         0.04987
C         57.61045        41.66263         0.42465
C         56.36228        42.37755         0.38119
C         57.58166        44.51191         0.68757
C         56.35106        43.79457         0.52210
C         57.55411        45.93409         0.83142
C         56.31024        46.65066         0.84650
C         57.55697        48.74447         1.16100
C         56.30655        48.06820         1.02891
C         58.69737        25.12968        -0.26901
C         59.72589        26.99542         0.99100
C         58.62771        26.46112         0.28738
C         59.55709        28.18402         1.69084
C         58.36578        28.90789         1.54871
C         59.48877        31.90445         2.07769
C         58.34347        31.18988         1.74769
C         59.65463        33.19931         1.58580
C         58.61529        33.81639         0.88167
C         59.94210        35.93864         0.72040
C         58.71401        35.23756         0.56849
C         60.00020        37.31145         0.61874
C         58.82965        38.07679         0.37843
C         60.04860        40.25534         0.56937
C         58.84359        39.51927         0.40341
C         60.04196        41.62981         0.64907
C         58.82994        42.37147         0.59219
C         60.02325        44.55957         0.85083
C         58.82069        43.81383         0.70903
C         60.00381        45.93183         0.97847
C         58.77612        46.64456         0.98046
C         58.74835        48.06151         1.13463
O         51.04742        26.10999        -2.77392
O         26.27291        44.13944         2.16448
O         36.17407        40.11336         1.18950
O         42.28729        40.05944        -2.51670
O         38.46156        47.66977        -2.54206
O         51.32911        34.48194        -2.33720
O         40.19470        23.79029         1.70754
O         53.38983        24.86966        -2.83746
O         53.54279        35.69887        -2.21342
O         37.46616        46.58238         0.49780
O         43.41616        18.42516         2.11785
O         24.51409        30.28813        -1.47710
O         52.64869        40.79006         1.56654
O         35.70900        50.92753        -2.73728
O         34.01088        43.10636        -1.96854
O         35.90440        48.16707        -2.55685
O         45.76568        19.54626         1.95504
O         31.94256        30.29729         2.23478
O         42.74268        32.56250         1.22392
O         58.17888        29.97844         2.42271
O         36.97490        35.42314        -2.12404
O         37.90702        23.71321        -1.37792
O         53.54363        27.47333        -2.49390
O         30.65471        45.26864         1.43707
O         42.77811        54.79060         1.87347
O         33.74976        35.67120         1.63108
O         32.64532        49.70230        -2.26527
O         42.59293        48.62366        -2.07952
O         44.84983        25.26781         1.77698
O         41.05973        43.92879        -2.61486
O         41.94674        56.03498        -1.42314
O         55.15133        26.55250         0.79140
O         27.06684        39.85468        -1.29459
O         38.41300        33.33874        -2.04661
O         29.67311        29.05626         2.28969
O         50.08879        49.41203         2.64974
O         51.99405        44.28159        -1.16284
O         24.71960        33.25208         1.98309
O         24.57957        27.04157         1.68116
O         42.04483        42.03588         0.48150
O         38.94725        35.41699         0.90147
H         39.82664        35.19921         1.27751
O         40.09492        37.31190        -2.95795
H         40.51324        38.11843        -3.33189
O         55.45055        37.57146        -2.20588
H         54.77940        36.98505        -2.63944
O         48.77936        46.20242         2.51819
H         47.92886        46.54570         2.86705
O         30.12073        41.72087        -1.97529
H         30.89328        41.29698        -2.40628
O         40.59716        46.35117        -3.11237
H         41.14252        45.60738        -3.46054
O         38.13674        50.35407        -3.33608
H         37.26275        50.13102        -3.73490
O         40.54956        20.13542        -1.54860
H         39.73071        19.72499        -1.90059
O         45.73134        22.91909         2.24575
H         45.26711        23.64307         2.72751
O         48.69726        42.09626         1.97959
H         48.74989        41.12993         2.14205
O         37.27410        37.69716         1.26849
H         36.83694        38.26697         1.93994
O         44.67773        52.91043         2.64165
H         43.87576        53.46927         2.78875
O         27.59546        45.89954        -1.36290
H         28.44860        45.81979        -1.84394
O         37.11127        37.90126        -2.34705
H         37.62698        37.45805        -3.05634
O         30.93974        47.76338        -2.22297
H         31.23641        48.49665        -2.81308
O         40.84449        50.35308        -2.80716
H         40.05450        50.04158        -3.30988
O         48.38812        25.26982        -2.61271
H         49.16829        25.62980        -3.10309
O         36.28103        30.79935        -2.05498
H         36.62057        31.63484        -2.44564
O         35.79147        53.15926         1.03742
H         36.57956        53.73406         1.14671
O         47.40241        50.05176         2.88725
H         48.28490        49.75605         3.22354
H         22.06083        26.79399        -0.36098
H         22.16413        29.19527        -0.79583
H         22.12924        31.25608        -0.55158
H         22.00008        33.55581         0.19016
H         22.03022        35.46587         0.66983
H         22.04430        37.90745         0.67765
H         22.09031        39.76291         1.18001
H         22.10734        42.19087         1.26042
H         22.05363        44.09124         0.73837
H         22.07846        46.53607         0.88741
H         25.49321        23.43956         0.05059
H         23.39347        24.62011        -0.27504
H         25.43227        49.93999         0.78380
H         23.31596        48.70168         0.94068
H         27.05494        22.49045         0.57566
H         27.09405        50.88966         0.58474
H         29.15057        21.27200         0.56213
H         29.18339        52.07152         0.22826
H         32.87270        19.10628         0.46302
H         30.78008        20.32453         0.56751
H         33.09814        54.02791         0.41716
H         30.94515        52.86243         0.57090
H         34.51992        18.14394         0.29266
H         34.43937        55.00434        -1.05241
H         36.63117        16.95798         0.23303
H         36.54075        56.27920        -1.30765
H         40.40634        14.82367         0.58564
H         38.26928        16.02265         0.39301
H         40.15353        58.50144        -0.13077
H         38.11904        57.24552        -0.56831
H         42.85644        14.81698         0.53914
H         42.64706        58.53614         0.50314
H         45.01058        15.97647         0.61674
H         44.63179        57.32230         1.24312
H         48.49445        18.29307        -0.79219
H         46.54688        17.03955        -0.10892
H         48.45748        55.00276         0.80936
H         46.35231        56.24788         0.71552
H         50.19064        19.20139        -0.67876
H         50.08721        54.05378         0.57282
H         52.25399        20.38380        -1.10584
H         52.20718        52.88476         0.68972
H         55.97842        22.45991        -1.35166
H         53.88416        21.29013        -1.45945
H         55.94704        50.77078         1.32525
H         53.84114        51.97083         1.38273
H         57.71209        23.48033        -1.19566
H         57.57962        49.83389         1.29343
H         59.66687        24.61188        -0.23999
H         60.65835        26.42029         1.07345
H         60.33508        28.55901         2.36805
H         60.23376        31.45459         2.74572
H         60.56589        33.75100         1.84642
H         60.86943        35.38955         0.92939
H         60.96721        37.81020         0.76569
H         61.01086        39.72984         0.62848
H         61.00043        42.15061         0.77205
H         60.99276        44.04466         0.85862
H         60.94528        46.48917         1.08757
H         59.69867        48.60384         1.24299
