         648
 CSIRO Nanostructure Databank - Neutral Graphene Oxide Data Set
C          5.96906        31.87118        -0.35881
C          5.99700        33.22352        -0.52722
C          8.39542        27.59407         0.17612
C          8.39407        28.99276         0.23866
C          7.16971        29.75090         0.08968
C          8.35945        31.90412         0.35582
C          7.14851        31.12548         0.01597
C          8.42070        33.34744         0.02972
C          7.21016        34.00483        -0.37531
C          8.42473        36.13376        -0.46790
C          7.22132        35.37924        -0.58597
C          8.42628        37.52856        -0.65187
C         10.87162        23.30170         0.11694
C         10.83697        24.71878         0.01618
C          9.62878        25.44047         0.11718
C         10.85481        27.57099         0.06503
C          9.61068        26.85756         0.12807
C         10.85149        28.99212         0.12137
C          9.64918        29.68494         0.27419
C         10.92790        31.89757         0.38079
C          9.66643        31.14296         0.48924
C         10.85770        33.38410         0.69465
C          9.61858        34.05278         0.12753
C         10.88168        36.18181        -0.15243
C          9.65611        35.45464        -0.15590
C         10.87710        37.57779        -0.40247
C          9.62719        38.27005        -0.60550
C         10.83844        40.39932        -0.86954
C          9.63459        39.67417        -0.77595
C         10.84022        41.80524        -1.03841
C         13.26100        19.04585         0.85198
C         13.27351        20.45162         0.68759
C         12.07732        21.18664         0.52339
C         13.34193        23.26932         0.16999
C         12.09156        22.58051         0.26007
C         13.30466        24.63783        -0.48988
C         12.07701        25.44392        -0.11147
C         13.36787        27.55171         0.09214
C         12.07778        26.82731        -0.06671
C         13.36913        29.03765         0.23011
C         12.11362        29.76450        -0.19456
C         13.38553        31.89492         0.30640
C         12.11748        31.22525         0.20768
C         13.37716        33.35631         0.52339
C         12.12448        34.10143         0.31001
C         13.38475        36.17451        -0.13335
C         12.14492        35.46252         0.02169
C         13.37071        37.62945        -0.28982
C         12.09372        38.32652        -0.47731
C         13.31968        40.39877        -1.12357
C         12.09669        39.69311        -0.78624
C         13.25740        41.77746        -1.41050
C         12.03788        42.51574        -1.25515
C         13.24032        44.67788        -1.37717
C         12.05782        43.94337        -1.24091
C         13.29338        46.05785        -1.08620
C         15.55867        14.73612         1.62252
C         15.61850        16.12602         1.15441
C         14.44883        16.89144         1.17512
C         15.71871        18.97927         0.89991
C         14.45355        18.29566         0.94294
C         15.71794        20.41539         0.85081
C         14.53556        21.15390         0.71350
C         15.78434        23.30221         0.51204
C         14.55989        22.59651         0.47736
C         15.87453        24.70102         0.06015
C         14.64166        25.39739        -0.42748
C         15.86804        27.62374        -0.01369
C         14.61440        26.92860        -0.50490
C         15.84865        29.01620         0.15282
C         14.64822        29.77759         0.12269
C         15.86744        31.95499         0.22917
C         14.61705        31.19966         0.22854
C         15.90357        33.31959         0.17596
C         14.67992        34.11229         0.38086
C         15.82878        36.14702        -0.49357
C         14.65283        35.52610        -0.06147
C         15.76556        37.43704        -1.28485
C         14.63727        38.33093        -0.81442
C         15.73568        40.36147        -1.81428
C         14.54915        39.70237        -1.32039
C         15.74589        41.73663        -1.97204
C         14.46128        42.46186        -1.88804
C         15.76988        44.70732        -1.84849
C         14.44978        43.98434        -1.88241
C         15.76829        46.16068        -1.50545
C         14.49298        46.80294        -1.07354
C         15.73201        48.79873        -0.30652
C         14.51160        48.12677        -0.64334
C         15.71505        50.11302         0.18270
C         18.14151        10.45900         1.83252
C         18.03874        11.84290         1.50396
C         16.79791        12.47357         1.68332
C         18.19288        14.74939         0.42677
C         16.41408        13.76041         1.16311
C         18.13868        16.08551         0.76860
C         16.87895        16.80587         0.90315
C         18.23274        18.92936         1.26254
C         16.91968        18.21815         0.92763
C         18.25730        20.35914         0.67017
C         16.99809        21.12449         1.03955
C         18.32816        23.31085         0.67835
C         17.02301        22.63054         0.91888
C         18.31241        24.81456         0.88999
C         17.07859        25.49898         0.35881
C         18.34855        27.60713         0.25208
C         17.08152        26.87907         0.22051
C         18.37703        28.98750         0.20697
C         17.11941        29.72301         0.43159
C         18.42060        31.91777         0.12614
C         17.14131        31.22066         0.40394
C         18.42515        33.31874        -0.06039
C         17.18185        34.11726         0.22564
C         18.34143        36.00891        -1.13215
C         17.06984        35.35966        -0.64081
C         18.34312        37.46295        -1.44545
C         17.07108        38.28331        -1.23777
C         18.24021        40.27263        -2.32640
C         16.93376        39.48574        -2.21734
C         18.27908        41.78374        -2.31769
C         16.96377        42.56902        -2.41049
C         18.18916        44.49200        -1.19743
C         17.01424        43.91344        -1.71767
C         18.14205        45.82010        -0.67670
C         17.10606        46.81745        -1.15748
C         18.08738        48.60694         0.29825
C         16.96044        48.05636        -0.30119
C         18.10831        49.96990         0.69520
C         16.90760        50.74622         0.61746
C         18.13737        52.74364         1.37726
C         16.92820        52.10509         1.00912
C         18.16763        54.13079         1.66224
C         20.61885         6.18261         1.61951
C         20.56673         7.59157         1.79968
C         19.38669         8.32973         1.81874
C         20.59531        10.52000         1.81793
C         19.35782         9.76333         1.83157
C         20.61156        11.87415         1.49950
C         19.31777        12.47378         1.01951
C         20.66144        14.64781         0.62902
C         19.39090        13.91482         0.53132
C         20.62315        16.03174         0.49205
C         19.41525        16.79664         0.71722
C         20.73807        18.88948         0.55517
C         19.47424        18.16910         0.82491
C         20.78914        20.37617         0.56945
C         19.53000        21.13579         1.04741
C         20.81197        23.25830         0.55158
C         19.48437        22.59799         0.62958
C         20.84747        24.76208         0.52140
C         19.58703        25.50575         0.46439
C         20.80404        27.57701        -0.17611
C         19.59200        26.86409         0.21051
C         20.77812        29.00781        -0.27609
C         19.60752        29.72036         0.02125
C         20.89127        31.87246         0.14256
C         19.60173        31.15917         0.04130
C         20.89229        33.36223         0.00927
C         19.62423        34.03520        -0.33416
C         20.87167        35.99854        -1.20409
C         19.63977        35.35383        -0.82509
C         20.79834        37.30419        -1.99193
C         19.50960        38.07638        -1.76645
C         20.81341        40.27366        -2.10399
C         19.52955        39.49721        -2.18475
C         20.75258        41.73276        -1.82132
C         19.52692        42.43894        -1.81796
C         20.65797        44.33371        -0.75219
C         19.46557        43.74119        -1.22841
C         20.56575        45.56784         0.05139
C         19.25150        46.32033         0.13772
C         20.56126        48.50512         0.53198
C         19.25418        47.74137         0.72247
C         20.55542        49.88440         1.03972
C         19.34719        50.59378         1.10650
C         20.60821        52.65827         1.67393
C         19.35765        51.99370         1.41026
C         20.62063        54.09388         1.85764
C         19.38673        54.81297         1.87643
C         20.60580        56.92250         2.12433
C         19.40611        56.22645         2.05775
C         20.58436        58.43669         2.18109
C         23.05087         3.39114         1.33800
C         21.85932         4.06284         1.42921
C         23.10005         6.18788         1.73396
C         21.82902         5.48355         1.62271
C         23.11518         7.56416         1.90093
C         21.84246         8.28579         2.08813
C         23.12607        10.55954         2.16312
C         21.83465         9.79260         2.14400
C         23.11115        12.05342         2.02564
C         21.84337        12.65206         1.48196
C         23.12364        14.73752         0.93941
C         21.87072        13.93898         0.94694
C         23.14759        15.98967         0.11982
C         21.83476        16.72616         0.03275
C         23.06621        18.83059        -0.36665
C         21.88563        18.17875        -0.05799
C         23.03985        20.26835        -0.81823
C         21.71134        21.05181        -0.45109
C         23.11238        23.16780        -0.64947
C         21.97883        22.47149         0.03223
C         23.14460        24.65175        -0.69462
C         22.06834        25.46080        -0.05183
C         23.17522        27.52530        -1.05609
C         21.95941        26.85220        -0.46841
C         23.28101        28.90855        -0.36987
C         22.02674        29.73932        -0.72362
C         23.40327        31.84605        -0.49785
C         22.15775        31.11790        -0.12082
C         23.41750        33.24536        -0.50179
C         22.18551        34.05481        -0.35735
C         23.38001        35.95569        -1.48869
C         22.09579        35.36112        -1.04484
C         23.34616        37.38587        -2.05814
C         22.05741        38.14175        -1.80535
C         23.27597        40.31238        -1.83324
C         22.07126        39.52768        -1.82723
C         23.23631        41.69225        -1.54528
C         21.96081        42.36855        -1.41532
C         23.16653        44.31740        -0.49621
C         21.93279        43.69472        -0.89896
C         23.14680        45.59702         0.21980
C         21.83200        46.26906         0.46489
C         23.13428        48.43328         0.81857
C         21.86973        47.76211         0.46662
C         23.09332        49.94511         0.88187
C         21.82362        50.44052         1.62499
C         23.04397        52.58402         2.27259
C         21.79799        51.93729         1.74158
C         23.09828        54.07464         2.04338
C         21.85360        54.80152         1.96075
C         23.09714        56.97738         2.02034
C         21.83278        56.21933         2.03337
C         23.09263        58.36110         2.53838
C         21.87747        59.05324         2.66760
C         23.08086        60.98461         3.52978
C         21.87753        60.36452         3.16525
C         24.29487         4.08384         1.44630
C         25.67281         6.12499         1.87029
C         24.33865         5.44525         1.63619
C         25.65761         7.62870         1.67934
C         24.35755         8.32951         1.65119
C         25.66885        10.54822         1.68242
C         24.37042         9.83476         1.74503
C         25.69518        11.95626         1.57795
C         24.49975        12.78658         2.03866
C         25.69868        14.81852         0.96596
C         24.41795        14.16995         1.40566
C         25.62247        16.03542         0.10127
C         24.36877        16.79587         0.05458
C         25.60172        18.85398        -0.47712
C         24.34086        18.12476        -0.34988
C         25.57729        20.28927        -0.59190
C         24.34887        21.00539        -0.62124
C         25.58569        23.10934        -0.95458
C         24.37931        22.40868        -0.75526
C         25.60168        24.55285        -1.12137
C         24.43181        25.33028        -0.93821
C         25.67109        27.39653        -1.25705
C         24.46013        26.73128        -0.97514
C         25.79513        28.88077        -1.09819
C         24.58697        29.65168        -0.65238
C         25.78981        31.82637        -1.24985
C         24.56130        31.11337        -0.82597
C         26.04663        33.16745        -0.52237
C         24.69214        34.00299        -0.25306
C         25.90907        36.14217        -0.70687
C         24.66739        35.32067        -1.00316
C         25.81376        37.56986        -1.23951
C         24.55650        38.22439        -1.69038
C         25.78451        40.42754        -1.82770
C         24.56558        39.64804        -2.26243
C         25.72505        41.76401        -1.50699
C         24.45397        42.42555        -1.33833
C         25.66088        44.43567        -0.41884
C         24.42819        43.74868        -0.79918
C         25.61068        45.70053         0.25064
C         24.39167        46.35940         0.41646
C         25.56788        48.40720         1.25965
C         24.33187        47.73184         0.86889
C         25.55124        49.75958         1.55122
C         24.34292        50.55063         1.47970
C         25.56142        52.57302         2.18197
C         24.32399        51.86366         1.90689
C         25.54958        53.99495         2.30647
C         24.32381        54.72364         2.14322
C         25.60336        56.87399         2.59409
C         24.39582        56.19786         2.06621
C         25.54526        58.23714         2.91199
C         24.31921        58.97381         2.92760
C         24.28718        60.30722         3.41022
C         26.81557         8.33958         1.59227
C         28.08634        10.46248         1.33533
C         26.86059         9.79340         1.51333
C         28.13479        11.86541         1.19058
C         26.91384        12.59561         1.28679
C         28.15804        14.54490         0.17283
C         26.97472        14.05428         1.01021
C         28.17595        16.05900         0.08303
C         26.90519        16.72612        -0.25720
C         28.08268        18.89988        -0.35920
C         26.84436        18.19232        -0.39375
C         28.07319        20.31798        -0.55610
C         26.82076        20.99842        -0.67379
C         28.05873        23.09533        -1.07998
C         26.82502        22.40163        -0.92607
C         28.09027        24.47358        -1.70640
C         26.78768        25.21720        -1.48812
C         28.04464        27.26268        -2.06946
C         26.79006        26.61445        -1.58186
C         27.90234        28.73931        -2.23011
C         26.93346        29.57192        -1.77880
C         28.32324        31.85443        -1.88051
C         26.98641        31.08788        -1.80904
C         28.35878        33.30422        -1.50544
C         27.17517        33.96963        -1.16893
C         28.34460        36.11456        -1.15585
C         27.16368        35.39728        -1.10187
C         28.34086        37.56790        -1.12302
C         27.09934        38.23544        -1.58150
C         28.26064        40.44865        -1.35529
C         27.06997        39.70328        -1.84594
C         28.29784        41.90448        -1.65512
C         26.96841        42.59882        -1.48427
C         28.14884        44.46699        -0.29810
C         26.94995        43.89677        -0.76496
C         28.11558        45.52777         0.72501
C         26.75688        46.06966         1.18137
C         28.08237        48.34647         1.55808
C         26.76537        47.57399         1.73208
C         28.05344        49.72310         1.83987
C         26.75268        50.36982         2.24844
C         28.00989        52.57781         2.35704
C         26.77382        51.87342         2.20397
C         27.99123        53.97981         2.55737
C         26.78285        54.70099         2.53458
C         26.77078        56.10931         2.75332
C         29.38214        12.58691         1.05849
C         30.60668        14.72295         0.73644
C         29.43476        13.94018         0.71292
C         30.60651        16.11303         0.43063
C         29.33987        16.78510         0.13300
C         30.53624        18.93864        -0.14971
C         29.32246        18.22078        -0.12256
C         30.55140        20.34202        -0.46484
C         29.29894        21.03857        -0.62643
C         30.52891        23.20458        -0.93522
C         29.28147        22.44696        -0.87149
C         30.55548        24.58493        -0.98871
C         29.25274        25.28531        -1.12251
C         30.48616        27.57386        -0.68991
C         29.21967        26.78229        -1.15013
C         30.66672        29.01033        -1.18838
C         29.85480        29.73435        -1.99444
C         30.88803        31.91265        -1.49312
C         29.69459        31.19602        -1.95597
C         30.86342        33.34621        -1.54824
C         29.62442        34.01898        -1.54531
C         30.75486        36.14607        -0.86345
C         29.61592        35.44074        -1.24103
C         30.59063        37.47585        -0.15425
C         29.46696        38.26107        -0.80248
C         30.74631        40.48382        -0.79699
C         29.45802        39.74462        -0.80123
C         30.79992        41.81231        -1.06756
C         29.57812        42.60394        -1.34307
C         30.75167        44.51630        -0.12156
C         29.48727        43.96441        -0.69130
C         30.70838        45.79874         0.45004
C         29.42826        46.30726         0.97410
C         30.55790        48.47878         1.36956
C         29.33201        47.72530         1.32921
C         30.50188        49.85076         1.69148
C         29.26617        50.48296         1.92822
C         29.22648        51.86732         2.24980
C         31.78398        16.86775         0.42605
C         32.98507        18.98795         0.06279
C         31.79054        18.26298         0.11245
C         33.02260        20.36467        -0.33776
C         31.77332        21.01730        -0.64021
C         33.08242        23.19980        -1.15708
C         31.77869        22.43482        -1.05324
C         33.03963        24.65624        -0.86807
C         31.79513        25.35674        -0.90196
C         32.98412        27.47414        -0.41771
C         31.78958        26.77343        -0.75960
C         33.04392        28.94033        -0.35982
C         31.77154        29.78513        -0.48302
C         33.27089        31.83822        -0.93326
C         31.96786        31.17252        -1.07646
C         33.32042        33.30403        -0.86231
C         32.13264        34.04594        -1.32406
C         33.20165        36.07557        -0.15714
C         32.06751        35.52771        -0.95284
C         33.14494        37.52467         0.19440
C         31.87686        38.29866        -0.02123
C         33.26794        40.43743        -0.44354
C         31.95312        39.75905        -0.33047
C         33.30556        41.77886        -0.66407
C         32.09766        42.58085        -1.09822
C         33.21425        44.55558        -0.02666
C         31.99362        43.89678        -0.35762
C         33.16426        45.87014         0.45036
C         31.91688        46.51609         0.69135
C         31.81563        47.84988         1.15430
C         34.23235        21.05822        -0.40376
C         35.50201        23.21368        -0.41254
C         34.39646        22.41768        -1.03929
C         35.46667        24.58704        -0.26830
C         34.21636        25.33527        -0.48004
C         35.37375        27.37495         0.36972
C         34.18325        26.72434        -0.22605
C         35.37309        28.89074         0.50255
C         34.22316        29.59878        -0.07979
C         35.61967        31.77407         0.02732
C         34.42817        31.02998        -0.43030
C         35.65084        33.18289        -0.05584
C         34.47629        33.95247        -0.40940
C         35.66289        36.02842         0.27689
C         34.50352        35.37444        -0.16099
C         35.68888        37.49611         0.57327
C         34.42578        38.28542         0.36668
C         35.82084        40.32541        -0.23446
C         34.52192        39.57998        -0.43254
C         35.83447        41.75245        -0.77137
C         34.55252        42.52370        -0.52454
C         34.48807        43.85667        -0.22846
C         36.66303        25.29370         0.05694
C         37.89233        27.37899         0.42380
C         36.68788        26.68176         0.30429
C         37.98898        28.80716         0.72824
C         36.66836        29.62450         0.72617
C         38.02669        31.71984         0.47337
C         36.77073        31.05678         0.41767
C         38.07809        33.12925         0.33602
C         36.87101        33.88062         0.20102
C         38.16297        36.00353         0.21568
C         36.89482        35.30273         0.26018
C         38.19385        37.38946         0.12224
C         37.04078        38.23526         0.60349
C         36.95843        39.65688         0.05272
C         39.22773        29.56078         0.48657
C         40.50646        31.67145         0.39096
C         39.25625        30.94126         0.49151
C         40.54871        33.03024         0.31643
C         39.34051        33.82848         0.29159
C         39.36681        35.21107         0.17128
O         22.40888        15.99549        -1.12927
O         23.04938        11.39989         3.34177
O         27.23010        38.75500        -2.94987
O         32.39431        22.76687        -2.37589
O         26.01656        31.75444        -2.69446
O         26.55758        47.50199         3.13496
O         28.43020        40.30049         0.10870
O         29.72953        43.79765        -2.15726
O         26.62906        14.96536         2.09935
O         28.91961        45.28940         1.91164
O         23.90276        56.76926         0.80532
O         29.00132        29.18549        -2.96374
O         13.39994        28.16707         1.42057
O         14.19745        43.27059        -3.11424
O         21.89024        25.29124         1.39895
O         17.13918        30.49337         1.69029
O         21.75279         9.00015         3.38489
O          8.88932        31.56009         1.68716
O         29.04451        31.71706        -3.15183
O         25.64423        29.26421         0.31976
O         23.63904        15.05819         2.29022
O         34.26006        31.24612        -1.89375
O         15.76947        45.75060        -2.91525
O         31.73648        39.27704         1.06712
O         14.11289        33.84640         1.70983
O         24.13599         9.17503         0.43758
O         14.34786        38.27970         0.61139
O         32.88235        36.50805         1.20705
O         22.92367        20.16567        -2.34484
O         28.74037        26.04048         0.02676
O         18.36652        41.02729        -3.57432
O         21.65069        34.06993         1.02300
O         24.93695        38.31441        -0.29179
O         27.63062        42.45487        -2.80646
O         21.23008        48.30941        -0.77242
O         21.37742        19.69265         1.69215
O         17.06768        14.09882        -0.05204
O         26.60211        32.84554         0.70900
O         26.15807        15.92054        -1.27751
O         17.48212        35.19496        -2.04444
O         37.30898        29.24141         1.96408
O         35.03949        28.03071         1.63445
O         34.91903        38.07618         1.70854
O         20.33447        39.73399        -3.39789
O         19.40156        12.78495        -0.41009
O         21.82388        22.67194         1.46143
O         22.66674        23.87479        -1.87025
O         21.72308        31.32675         1.23699
O         15.54350        24.85415        -1.45208
O         24.23664        35.12104        -2.36781
O         22.44605        45.58502         1.57545
O         32.46220        35.10948        -2.29364
O         17.00757        21.94314         2.23642
O         19.64914        45.35843         1.18921
O         28.01763        14.01006        -1.16968
H         27.32715        14.55014        -1.62801
O         24.60941        34.22238         1.15565
H         25.38069        33.69138         1.52999
O         31.40803        30.11330         0.88857
H         31.01332        29.29875         1.28783
O         35.95581        41.61290        -2.21040
H         35.58724        42.41798        -2.63150
O         26.03574        36.26840         0.72488
H         25.36860        36.92003         1.03596
O         24.07791        19.46650        -2.84786
H         23.75628        18.53659        -2.94880
O         34.58103        39.08488        -1.81775
H         34.94789        39.82402        -2.36223
O         17.67555        47.34218        -2.39940
H         17.27428        46.80497        -3.12832
O         12.19507        29.79678        -1.66227
H         12.46003        28.90431        -1.97680
O         18.24470        24.96600         2.34737
H         19.04491        24.55466         2.73846
O         28.33377        24.24316        -3.11235
H         27.54782        23.80268        -3.49536
O         23.02047        50.41776        -0.48869
H         22.35164        49.85736        -0.95500
O         20.88845        21.17441        -1.62419
H         21.42071        21.57823        -2.34357
O         22.97752        27.68730        -2.49779
H         22.92486        26.79199        -2.89633
O         34.86624        22.12904        -2.40044
H         34.05406        22.07449        -2.95992
O         32.35043        42.92336        -2.49906
H         31.55319        43.41937        -2.80761
O         18.27243        20.23239        -0.76789
H         17.51265        19.67614        -1.04180
O         15.45044        37.03012        -2.63026
H         16.16152        36.41015        -2.92142
O         37.39714        38.43377         2.01072
H         36.54528        38.50823         2.50454
O         10.75332        33.49798         2.14965
H         10.02158        32.89076         2.42297
O         21.92945        30.02228        -2.13725
H         22.04602        29.18013        -2.63995
O         26.61060        50.06235         3.67198
H         26.56773        49.04985         3.71865
O         16.67556        38.97976        -3.53587
H         16.95377        39.67244        -4.17561
O         19.09562        47.62441         2.16278
H         19.36572        46.70458         2.40684
O         17.31100        34.63152         1.58364
H         17.20841        33.88358         2.21044
O         30.29549        27.77567         0.74629
H         29.78010        27.00015         1.08110
O         23.42239        37.24287        -3.50737
H         22.57326        36.81872        -3.79474
O         26.40804        45.22336         2.29841
H         26.32840        45.84785         3.07924
O         20.76670        36.93235        -3.41439
H         20.56539        37.76765        -3.90291
O         16.74854        42.90835        -3.80344
H         17.17669        42.20961        -4.34942
O         22.94629        52.41893         3.74050
H         22.85873        51.44697         3.89771
O         19.60442        21.21506         2.48770
H         20.51893        21.50110         2.71520
O         19.47501        58.89473         2.96099
H         19.60712        58.60284         3.88592
O         14.49032        27.24899        -1.92767
H         15.06558        26.60747        -2.40515
O         28.32203        26.76236        -3.39538
H         28.86415        27.44068        -3.85793
O         24.57487        39.63884        -3.70786
H         24.10469        38.82045        -4.00783
O         23.21155        28.67872         1.04323
H         24.12671        28.70477         1.40539
O         21.94402        49.89215         2.99256
H         21.05095        49.89838         3.39994
O         24.83220        13.02999         3.42144
H         24.28741        13.78913         3.72670
O         13.08175        24.33323        -1.90749
H         13.96764        24.10593        -2.27682
O         17.17264        38.87569         0.07728
H         16.80050        38.25883         0.74440
O         30.15697        37.16888         1.19254
H         30.35694        37.95394         1.75057
O         26.10547         5.82877         3.21658
H         25.42148         6.15299         3.83816
O         18.22467        18.97489         2.70585
H         18.80919        19.72202         2.99246
H          5.03392        31.31505        -0.52107
H          5.07925        33.75676        -0.81567
H          7.43898        27.05131         0.14273
H          6.24072        29.19000        -0.09602
H          6.28994        35.89889        -0.85570
H          7.47855        38.04898        -0.85430
H          9.92192        22.75259         0.20391
H          8.67984        24.89131         0.21016
H          8.67739        40.20726        -0.87486
H          9.88702        42.35255        -1.00207
H         12.29393        18.52181         0.88551
H         11.11255        20.65882         0.56131
H         11.12805        44.47335        -0.98623
H         12.36690        46.56003        -0.76893
H         14.85247        14.51181         2.43642
H         13.48621        16.39473         1.36733
H         13.55901        48.63344        -0.42719
H         14.76963        50.67458         0.19474
H         17.21150         9.89838         2.01197
H         16.03961        11.90946         2.25089
H         15.99863        52.69185         0.97557
H         17.22782        54.70246         1.64902
H         19.68093         5.63068         1.45611
H         18.42580         7.79928         1.73786
H         18.45693        56.78034         2.09613
H         20.40383        58.81090         1.13401
H         23.06064         2.30278         1.18710
H         20.90598         3.52081         1.34982
H         23.06705        62.01553         3.91006
H         20.92442        60.90422         3.25393
H         25.23149         3.51071         1.39229
H         26.44395         5.67513         1.19360
H         26.45945        58.73907         3.26374
H         25.22800        60.79432         3.70373
H         27.77674         7.80281         1.59663
H         29.01455         9.87659         1.26328
H         28.94011        54.51625         2.70254
H         27.70325        56.60622         3.06042
H         30.31569        12.04952         1.28753
H         31.55556        14.25460         1.04155
H         31.43194        50.43416         1.74781
H         30.17629        52.41302         2.35451
H         32.74278        16.37276         0.64249
H         33.93432        18.48018         0.29067
H         34.09701        46.41453         0.65919
H         32.73217        48.43299         1.32596
H         35.15901        20.51678        -0.15789
H         36.45134        22.68578        -0.23358
H         36.72426        42.31643        -0.37289
H         35.41533        44.42975        -0.06953
H         37.60769        24.73034         0.08975
H         38.82957        26.83592         0.22543
H         39.16583        37.89285        -0.00141
H         37.90868        40.21690         0.07013
H         40.16198        28.99796         0.33717
H         41.44192        31.09260         0.39444
H         41.51697        33.54917         0.26022
H         40.33398        35.73160         0.10358
