         252
 CSIRO Nanostructure Databank - Neutral Graphene Oxide Data Set
C         30.35748        31.78815         0.34625
C         30.48464        32.96362         0.82172
C         30.72752        35.77298         2.16560
C         30.75029        37.00544         2.09070
C         30.25310        40.32607         1.32374
C         30.50055        41.54150         1.24146
C         32.60308        28.99713        -0.81903
C         31.59925        29.58141        -0.37892
C         32.74159        31.75379        -0.29163
C         31.32720        30.70341         0.51480
C         32.84730        33.09566         0.38552
C         31.67268        33.72194         0.92379
C         32.87396        35.85069         0.98162
C         31.91340        34.92733         1.79177
C         32.74585        37.33985         0.78317
C         31.45341        38.00220         1.35000
C         32.89098        40.36157         0.64134
C         30.99070        39.18064         0.83817
C         32.83277        41.82843         0.82551
C         31.61244        42.44896         1.11325
C         32.82317        44.50010         1.04235
C         31.76985        43.87454         1.25627
C         35.29164        27.42719        -0.85524
C         35.16696        28.81676        -0.88248
C         33.93877        29.64063        -1.12543
C         35.28859        31.64039        -0.38113
C         34.00064        30.87942        -0.18264
C         35.40363        32.99262         0.27651
C         34.09044        33.72166         0.42213
C         35.37497        35.93044         0.28332
C         34.18972        35.15189         0.77811
C         35.21043        37.41037         0.14986
C         34.05287        38.07392         0.46520
C         35.38762        40.32884         0.49884
C         34.13934        39.55229         0.70389
C         35.36193        41.73722         0.48271
C         34.15061        42.49547         0.90511
C         35.31117        44.78105         0.28455
C         34.21310        44.03616         1.00814
C         35.99219        45.82324         1.08764
C         37.59796        27.31375        -0.29929
C         36.34248        26.77786        -0.56688
C         37.63201        28.74325        -0.46428
C         36.42019        29.47102        -0.69933
C         37.73489        31.59711        -0.58044
C         36.46255        30.92468        -0.59693
C         37.76075        33.05438        -0.62808
C         36.54290        33.80717        -0.31551
C         37.66969        35.94678        -0.84848
C         36.49797        35.18423        -0.36004
C         37.67412        37.45528        -0.70589
C         36.41404        38.18839        -0.27970
C         37.73693        40.31352        -0.19662
C         36.53350        39.62379         0.06091
C         37.75821        41.74064        -0.10438
C         36.54784        42.46619         0.14234
C         37.73121        44.58190        -0.32929
C         36.52704        43.88895        -0.03686
C         37.69592        46.05512        -0.71212
C         36.94170        46.49354         1.54275
C         39.99227        24.59008         0.67091
C         38.93562        25.20115         0.43121
C         40.13834        27.31485         0.12913
C         38.75938        26.63660         0.27641
C         40.16457        28.61364        -0.69662
C         38.89470        29.43869        -0.47823
C         40.23743        31.43660        -1.10511
C         38.93268        30.84029        -0.59488
C         40.27025        33.00909        -1.21875
C         38.95712        33.70797        -0.85685
C         40.24358        35.91525        -0.67602
C         38.97128        35.17824        -1.02149
C         40.22173        37.39995        -0.50481
C         38.95866        38.18922        -0.59992
C         40.21702        40.33717        -0.54952
C         38.95390        39.56265        -0.46078
C         40.22964        41.78522        -0.29544
C         38.99149        42.47760        -0.20065
C         40.25380        44.62063         0.08776
C         38.95532        43.90290        -0.22259
C         40.26677        46.09958        -0.25376
C         38.98017        46.83110        -0.53539
C         40.23447        48.88963        -0.03615
C         39.18925        48.24442        -0.19203
C         42.64035        24.54162         0.64114
C         41.32211        25.09907         0.48938
C         42.67276        27.14721        -0.00365
C         41.35682        26.47647         0.25227
C         42.70442        28.60630        -0.38897
C         41.45702        29.38501        -0.48659
C         42.69757        31.50243        -0.38505
C         41.48689        30.79014        -0.49785
C         42.71670        32.96289        -0.39657
C         41.39084        33.71369        -0.37456
C         42.65691        35.85746         0.04166
C         41.59175        35.19639        -0.86111
C         42.76347        37.36416        -0.05846
C         41.54699        38.11303        -0.51069
C         42.76037        40.34835        -0.11563
C         41.53693        39.61300        -0.52525
C         42.70328        41.78944        -0.18203
C         41.48845        42.46284        -0.30542
C         42.73623        44.69678        -0.40461
C         41.43525        43.95074        -0.61397
C         42.79650        46.04117        -0.15292
C         41.54272        46.80648         0.16944
C         42.88561        48.85498         0.06110
C         41.53971        48.34750         0.35376
C         43.75297        25.08426         0.53262
C         45.19510        27.23834         0.30322
C         43.91514        26.57687         0.71771
C         45.25152        28.62727         0.05163
C         44.02102        29.33495        -0.37248
C         45.24143        31.55864         0.05186
C         44.02034        30.84448        -0.40749
C         45.18922        32.88857         0.51806
C         43.91809        33.67634         0.22748
C         45.38419        36.34261         1.17535
C         43.58361        35.07169         0.66222
C         45.21178        37.56683         0.60075
C         43.83928        38.20673         0.66137
C         45.15406        40.41927         0.67116
C         43.90086        39.66553         0.24031
C         45.24529        41.80589         0.04439
C         43.95157        42.59700         0.13537
C         45.27101        44.59878        -0.62668
C         43.95918        43.86948        -0.72127
C         45.24658        46.05810        -0.58518
C         44.08970        46.74518        -0.27389
C         43.89985        48.14912        -0.06340
C         47.56741        27.29873         0.33787
C         46.48224        26.67835         0.45560
C         47.73352        28.69204         0.20143
C         46.47866        29.37663         0.04893
C         47.71546        31.53682         0.21374
C         46.47702        30.82368         0.08312
C         47.70619        32.95421         0.48941
C         46.45049        33.45406         0.91538
C         47.74729        36.04590         0.53360
C         46.62423        35.63903         1.20918
C         47.69310        37.47023        -0.04962
C         46.44355        38.28739         0.30888
C         47.68858        40.47103         0.68960
C         46.44307        39.64551         0.43903
C         47.73164        41.75447        -0.13203
C         46.42886        42.42502        -0.31688
C         47.71743        44.46911        -1.16984
C         46.43018        43.84314        -0.70691
C         47.60415        45.93313        -1.15972
C         46.58078        46.53786        -0.80780
C         50.25755        28.86203         0.48979
C         48.94891        29.41509         0.26327
C         50.23903        31.57472         0.34084
C         48.94504        30.82062         0.28496
C         50.21141        33.07084         0.16109
C         48.90395        33.79706         0.37636
C         50.15501        35.92821        -0.19449
C         48.91205        35.20805         0.34756
C         50.23077        37.47827         0.02271
C         48.96103        38.17799         0.40869
C         50.25362        40.46144         0.75119
C         48.96981        39.63817         0.69072
C         50.20827        41.54507        -0.32369
C         48.93234        42.33420        -0.44981
C         50.32985        44.31714        -1.06090
C         48.99446        43.69041        -1.10185
C         51.34106        29.49277         0.58537
C         52.12451        31.36843         2.05426
C         51.40732        30.85355         1.01476
C         52.68680        31.84478         3.08058
C         51.48049        33.84738         0.28313
C         52.52301        36.12579         0.27842
C         51.43887        35.20374         0.24472
C         52.69181        37.35067         0.29020
C         51.53601        38.26365         0.15967
C         52.67134        40.45639         0.71734
C         51.55920        39.65336         0.65343
C         52.51476        41.77790         0.72740
C         51.70424        42.63440         0.12820
C         51.24991        43.84898        -0.33206
O         44.32477        35.61561         1.72391
O         35.25045        35.50254         1.72210
O         44.24300        30.05218        -1.62814
O         34.47772        43.23724         2.15642
O         46.53840        34.43557         1.91784
O         39.88055        46.41588        -1.62038
O         39.36161        27.41059         1.35824
O         40.98227        40.07316        -1.79405
O         42.56917        37.68539        -1.46802
O         42.82102        27.49418        -1.38738
O         48.25925        43.81022        -2.34753
O         48.92181        38.65325         1.79465
O         32.36697        36.37802        -0.27000
O         40.29408        30.87740        -2.41809
O         50.86183        38.13182        -1.13634
O         33.30552        39.77693         1.91238
O         43.73099        33.57093        -1.24470
O         36.87552        46.49176        -1.51885
O         50.39987        32.15958        -0.99719
O         38.18990        35.60320        -2.17254
O         40.13008        36.47236         0.68110
O         41.50423        47.46266         1.48115
O         31.88497        39.71413        -0.11817
O         36.75580        38.01411        -1.70315
O         32.31739        31.97763        -1.58846
H         32.61854        31.25149        -2.18781
O         50.04359        35.75950        -1.63550
H         50.70487        36.37075        -2.04074
O         34.09249        30.37809         1.17858
H         34.60748        31.03247         1.71032
O         33.95365        30.09497        -2.48627
H         33.95088        29.31384        -3.07901
O         40.48815        33.31270        -2.59227
H         40.39304        32.43921        -3.07227
O         40.12493        28.23726        -2.09129
H         40.21753        29.11010        -2.58015
O         43.73891        26.87709         2.10717
H         44.46717        26.46329         2.61651
O         32.62289        34.51547         2.95809
H         32.02955        33.96166         3.50689
O         34.67094        45.25060        -0.90180
H         35.26175        45.92889        -1.32266
O         47.55869        40.95163         2.07387
H         48.01675        40.29578         2.64709
O         31.51381        30.40277         1.83702
H         32.10970        29.62870         1.92134
O         47.71394        37.38126        -1.48559
H         48.46187        36.78717        -1.75633
O         40.96519        33.72535         1.00636
H         40.65140        34.62331         1.25810
O         43.82816        43.01046         1.51722
H         44.02364        42.22206         2.08162
O         41.15769        44.01026        -2.03248
H         41.92957        43.60859        -2.49761
O         43.84885        43.41940        -2.10892
H         44.20208        44.12174        -2.69589
O         44.97279        40.59418         2.12589
H         45.86610        40.88748         2.46245
O         41.93398        35.28912        -2.22920
H         42.71353        34.71783        -2.40754
O         50.58171        41.05549        -1.55017
H         50.37343        41.69906        -2.25937
O         50.23421        41.15051         2.01492
H         50.45322        40.50514         2.71904
O         40.45592        44.47202         1.50675
H         39.78784        45.00647         1.98789
O         52.68639        33.23782         0.25927
H         52.61392        32.29534         0.01142
O         43.41752        38.25664         2.04903
H         43.96443        38.94573         2.49860
O         35.77939        32.70087         1.68321
H         35.78241        33.57318         2.15061
