         320
 CSIRO Nanostructure Databank - Neutral Graphene Oxide Data Set
C         30.33192        31.67755        -0.17446
C         30.24499        32.99042         0.03345
C         30.27511        36.05764         0.61139
C         30.29551        37.28769         0.75610
C         30.32918        40.51720         0.80029
C         30.28368        41.74734         0.74541
C         32.64201        29.11636        -0.81613
C         31.52295        29.75688        -0.58000
C         32.86537        31.62076         0.70522
C         30.35302        30.41236        -0.57936
C         32.72202        33.00723         0.01271
C         31.39770        33.73413         0.21782
C         32.63782        35.85703         1.12745
C         31.46336        35.24400         0.16828
C         32.68528        37.40462         1.29048
C         31.36804        38.19037         1.17760
C         32.69509        40.38397         1.21544
C         31.46786        39.57887         0.59461
C         32.73413        41.80889         0.66716
C         31.43806        42.68180         0.99561
C         32.54585        44.26330        -0.46818
C         31.53695        43.88944         0.12373
C         35.40734        27.56095        -1.38347
C         35.18601        29.10756        -1.25235
C         33.92433        29.60496        -0.55719
C         35.22680        31.59832         0.15841
C         34.05217        30.86760         0.13055
C         35.16006        32.95078         0.82739
C         33.97929        33.81231         0.32986
C         35.21103        35.92164         1.26785
C         33.97030        35.26983         0.66847
C         35.27554        37.42861         0.94141
C         33.95683        38.17540         1.12581
C         35.15440        40.29475         0.66832
C         33.95948        39.56869         0.96298
C         35.14600        41.63944         0.16451
C         33.83287        42.31072         0.03444
C         35.06101        44.42948        -0.54127
C         33.82389        43.60419        -0.85513
C         35.28882        45.73685        -1.23411
C         37.85487        27.75637        -1.82841
C         36.58095        27.22989        -1.76254
C         37.80378        29.20011        -1.30189
C         36.51211        29.52633        -0.49881
C         37.69507        31.58158         0.24351
C         36.50850        30.99628        -0.11753
C         37.72938        32.94781         0.90617
C         36.44549        33.73402         0.59167
C         37.77117        35.53803         1.78084
C         36.43399        35.04386         1.37731
C         37.67055        37.75875         1.86533
C         36.48033        38.24295         1.41515
C         37.64897        40.15730         0.31656
C         36.46220        39.72783         1.14189
C         37.64233        41.58666        -0.13585
C         36.34853        42.31615        -0.13049
C         37.62437        44.46618        -0.60699
C         36.37738        43.64181        -0.87855
C         37.59472        45.98577        -0.52774
C         36.32305        46.40819        -1.25159
C         40.38824        25.24662        -2.88180
C         39.41033        25.99529        -2.89063
C         40.56784        27.87226        -1.67924
C         39.07939        27.39741        -2.59255
C         40.20830        28.81759        -0.53692
C         39.03309        29.50043        -0.46074
C         40.19989        31.48941         0.39690
C         38.90804        30.69684         0.46938
C         40.23432        32.97394         0.57606
C         38.98553        33.84361         0.54099
C         40.24190        35.87013         1.91833
C         38.99197        35.05503         1.46667
C         40.25999        37.25303         1.12739
C         39.04520        38.34062         1.60475
C         40.21289        40.18679         0.21807
C         38.95536        39.45337         0.55700
C         40.13682        41.64904        -0.05232
C         38.93882        42.30176        -0.18683
C         40.12223        44.29474        -1.07474
C         38.91734        43.82937        -0.17140
C         40.09191        45.77537        -1.41785
C         38.83933        46.53526        -1.15728
C         40.05298        48.54328        -1.92286
C         39.04869        47.85269        -1.58098
C         42.79057        24.70092        -1.86485
C         41.76645        25.65236        -2.43649
C         42.73250        27.16410        -0.50320
C         41.43935        26.65928        -1.21094
C         42.70506        28.49691         0.17813
C         41.40580        29.26039         0.24934
C         42.72975        31.46358         0.28810
C         41.46006        30.70298         0.63381
C         42.78870        32.78366         1.10742
C         41.44369        33.51748         1.26343
C         42.84941        35.48779         1.89250
C         41.47819        34.91213         1.79942
C         42.76996        37.75346         1.64320
C         41.51184        38.16871         1.21016
C         42.77954        40.31045         0.52549
C         41.47281        39.59682         0.78903
C         42.73975        41.57906        -0.28109
C         41.44082        42.31048        -0.40080
C         42.72314        44.43847        -1.08080
C         41.47046        43.83266        -0.45246
C         42.71717        45.76546        -1.42693
C         41.41075        46.51676        -1.58439
C         42.68478        48.54432        -2.00074
C         41.38934        48.10384        -1.37045
C         43.85331        25.31927        -1.46302
C         45.29807        27.07096        -0.14860
C         44.06334        26.53112        -0.82867
C         45.24610        28.62812        -0.06144
C         44.00479        29.20212         0.63836
C         45.20899        31.43409         0.41587
C         44.03429        30.72639         0.46556
C         45.20703        32.92248         0.69213
C         43.89619        33.69445         0.54019
C         45.11799        35.96103         0.81444
C         43.96050        35.04386         1.25711
C         45.25460        37.40717         1.42874
C         44.01502        38.26676         1.19864
C         45.27461        40.26782         0.50017
C         44.07407        39.58244         0.65974
C         45.21038        41.78787         0.38113
C         44.09351        42.24596        -0.58374
C         45.28588        44.33545        -1.42204
C         44.05023        43.81382        -0.63450
C         45.21289        45.87533        -1.47368
C         43.99725        46.48974        -1.63244
C         43.72519        47.88353        -1.84815
C         47.79362        27.23364        -0.60198
C         46.64420        26.84392        -0.82405
C         48.49570        28.04707         0.34208
C         46.46809        29.34171         0.53599
C         47.79894        31.47579         0.65648
C         46.49074        30.71537         0.50871
C         47.70569        32.97734         0.26261
C         46.47068        33.72100         0.74778
C         47.66920        35.89784         0.82877
C         46.47759        35.23546         0.80067
C         47.83110        37.37993         1.28609
C         46.53383        38.10026         0.80090
C         47.79658        40.32791         0.43755
C         46.53976        39.62434         1.06381
C         47.76293        41.88385         0.73809
C         46.55395        42.41447        -0.04285
C         47.87285        44.53064        -0.67389
C         46.59438        43.71912        -0.79671
C         47.63404        45.84832        -1.18784
C         46.54098        46.38376        -1.46100
C         50.83055        28.73839        -0.13664
C         49.78098        28.33849         0.74969
C         50.16634        31.78495        -0.44779
C         48.87779        31.01619        -0.38309
C         50.23613        33.07678         0.01111
C         49.00585        33.70688         0.66509
C         50.15844        35.93554         0.70659
C         48.89934        35.18443         0.28979
C         50.01401        37.33287         0.12232
C         49.01704        38.11331         0.64219
C         50.37239        40.29865         0.26954
C         49.11225        39.62731         0.90117
C         50.39939        41.83095         0.45748
C         49.10183        42.59495         0.40692
C         50.37144        44.46029        -0.43134
C         49.03340        43.96888        -0.21726
C         51.47580        29.68322        -0.58739
C         52.48432        31.97788        -1.04689
C         51.34858        31.03018        -1.22517
C         52.55219        33.09674        -0.52873
C         51.47206        33.91154        -0.02223
C         52.50909        36.19613         0.61333
C         51.46473        35.24000         0.32370
C         52.72627        37.35309         1.01022
C         52.01276        38.55694         1.41723
C         52.72040        40.40692        -0.14477
C         51.77671        39.65744         0.58179
C         52.67307        41.53800        -0.73994
C         52.00547        42.62035         0.03907
C         51.43615        43.83891        -0.58624
O         37.45434        40.42533        -1.08293
O         45.89045        33.17801         1.97746
O         49.95245        42.49885         1.64354
O         39.61310        39.26307        -0.74260
O         41.18753        33.76920         2.69261
O         41.30338        29.71344         1.66487
O         35.50917        35.28412         2.52899
O         42.08132        40.48077         1.80323
O         46.85973        42.44540        -1.46340
O         41.98588        41.55343        -1.54156
O         40.38536        32.37371        -0.74457
O         31.90689        37.88311         2.46436
O         34.15227        34.84182        -0.69797
O         32.17803        31.22612         1.61693
O         42.85213        36.70439         2.56583
O         37.68998        36.61431         2.66280
O         48.65320        30.10641        -1.16974
O         40.68166        46.06005        -2.75230
O         47.50359        28.65365         1.18885
O         42.52911        27.24151         0.94663
O         48.29850        31.26792         1.99717
H         47.52470        31.32899         2.60025
O         32.40746        35.29576         2.42143
H         31.88241        35.94766         2.94217
O         47.62067        32.92124        -1.18073
H         47.92909        33.78764        -1.54774
O         37.79757        32.73815         2.33087
H         38.15407        31.83069         2.50594
O         39.94836        43.58200        -2.30674
H         40.32726        44.13745        -3.02809
O         46.54690        37.89762        -0.63226
H         46.80849        38.75136        -1.07545
O         36.59357        28.77479         0.73703
H         35.71871        28.80142         1.18088
O         34.90928        32.67636         2.21377
H         34.97719        33.52400         2.71944
O         31.50815        43.01224         2.36272
H         30.78042        43.62939         2.58368
O         45.38463        26.52327         1.15522
H         45.14418        25.57474         1.12301
O         38.75557        30.22544         1.83825
H         38.03410        29.54784         1.81920
O         31.75060        35.59631        -1.17698
H         31.21016        35.03467        -1.77141
O         47.54030        42.12782         2.14205
H         48.43987        42.07460         2.56308
O         38.92312        34.37952        -0.79609
H         39.31459        33.70856        -1.40471
O         45.14355        29.07846        -1.43302
H         45.97510        28.83399        -1.89585
O         43.21191        32.34424         2.40712
H         42.69545        32.84356         3.08414
O         36.37423        43.32220        -2.29247
H         37.18097        42.80210        -2.49579
O         41.31716        28.65054        -2.59620
H         41.95166        28.06149        -3.07872
O         44.21974        44.32893         0.71805
H         44.29294        45.30710         0.65736
O         45.23492        43.95816        -2.79328
H         45.64914        43.06468        -2.86748
O         49.92790        28.89266         1.99796
H         49.04763        28.89448         2.43495
O         44.12878        28.97637         2.04963
H         43.25020        29.14850         2.45727
O         40.14971        36.19527         3.30406
H         40.14646        35.35586         3.81334
O         48.82114        35.28116        -1.16318
H         48.46697        36.16891        -1.39265
O         42.35281        26.39035        -3.50349
H         42.68473        25.76122        -4.17811
O         35.04139        44.69002         0.85038
H         35.79795        45.28508         1.07779
O         44.46042        41.72258        -1.86701
H         43.64538        41.70713        -2.42171
O         41.44468        48.35241         0.01233
H         41.45339        49.31913         0.16808
O         40.67724        25.92172        -0.26590
H         41.04685        26.10055         0.63043
O         31.72235        39.43291        -0.80089
H         31.03041        38.85648        -1.18957
O         41.55664        44.28289         0.92831
H         42.49014        44.13867         1.23763
O         51.32421        38.42088         2.54545
H         51.16825        37.46779         2.77269
O         32.54079        40.43820         2.63698
H         32.05668        41.26435         2.87366
O         52.62794        42.88717         1.23309
H         52.09755        43.53763         1.73797
O         50.21634        40.16040        -1.16494
H         51.04538        40.48040        -1.59331
O         35.50468        37.37428        -0.50671
H         35.45904        38.28546        -0.86964
O         37.79395        30.08459        -2.45028
H         38.38574        29.68221        -3.14199
O         39.02556        44.24083         1.20481
H         39.94718        44.10094         1.53040
O         44.86179        42.23915         1.70556
H         45.67295        42.24802         2.26192
O         36.68970        40.38026         2.43709
H         35.94459        40.14863         3.03212
O         50.97276        30.89371        -2.56961
H         50.15611        30.34354        -2.59371
O         40.10855        36.81865        -0.21102
H         40.06360        37.60016        -0.81634
O         47.64195        40.18531        -0.98201
H         48.52696        40.29147        -1.41755
O         37.42151        46.41146         0.84339
H         37.41771        47.39167         0.86507
O         50.19757        36.08404         2.14479
H         49.86905        35.23607         2.54006
O         43.61433        33.89485        -0.85909
H         44.06658        34.72645        -1.15498
O         39.55036        38.93004         2.80802
H         39.63773        38.20698         3.47125
O         49.19813        39.82648         2.32162
H         48.76411        39.05196         2.76565
O         47.98700        37.39683         2.71293
H         47.12432        37.10910         3.11060
O         42.62072        31.57248        -1.14856
H         43.17489        32.32877        -1.45896
O         45.41473        37.26196         2.85174
H         45.35679        38.16453         3.24129
O         32.80533        32.70065        -1.40528
H         33.17841        33.49858        -1.84716
O         44.74482        36.15809        -0.58152
H         45.36900        36.80707        -0.99812
O         36.41773        34.00375        -0.81496
H         37.22807        34.50986        -1.07096
O         49.17644        33.67981         2.09429
H         49.11438        32.73084         2.38502
O         46.50640        39.74703         2.50149
H         46.78533        40.66867         2.73392
O         33.80832        43.21014        -2.20714
H         32.96120        42.76001        -2.40089
O         50.79633        37.71294        -0.91769
H         51.45863        37.02496        -1.13367
O         39.13548        28.20972        -3.75714
H         40.08294        28.47976        -3.88229
O         35.14523        29.65272        -2.54042
H         36.06830        29.77343        -2.88020
