         260
 CSIRO Nanostructure Databank - Neutral Graphene Oxide Data Set
C         30.47621        31.88029        -1.41405
C         30.44975        33.06824        -1.07765
C         30.47046        35.80201         0.66705
C         30.38386        37.03015         1.04367
C         30.25755        40.39964         1.73909
C         30.31027        41.63400         1.74431
C         32.85319        29.08305        -1.95720
C         31.71588        29.69613        -1.97169
C         32.80364        31.59240        -0.88126
C         31.56407        30.95804        -1.45048
C         32.81753        32.91528        -0.46192
C         31.60996        33.91022        -0.63822
C         33.30518        35.66465         1.05969
C         31.30567        34.75062         0.57902
C         33.28549        37.11318         1.25796
C         31.20721        38.04862         1.37060
C         32.54561        40.19087         0.77480
C         31.22135        39.49182         1.07945
C         32.66563        41.70546         1.04342
C         31.47381        42.50290         1.62599
C         32.59601        44.42902         0.95715
C         31.49535        43.93662         1.27347
C         35.55506        27.25427        -1.20637
C         35.36906        28.65029        -1.61558
C         34.09538        29.39863        -1.52397
C         35.40905        31.41910        -0.53237
C         34.04159        30.73474        -0.81587
C         35.39993        32.87819        -0.17547
C         34.07989        33.57685         0.00221
C         35.21926        35.87669        -0.45425
C         34.15603        35.06630         0.18061
C         35.19097        37.37474        -0.29966
C         34.08551        37.96625         0.53680
C         35.11987        40.26825         0.12386
C         33.86671        39.44794         0.41444
C         35.10285        41.70090         0.60240
C         33.79582        42.45361         0.27395
C         35.07683        44.59313         0.84386
C         33.89670        43.94547         0.66100
C         35.33590        45.98212         1.01746
C         37.70723        27.26538        -0.15529
C         36.52403        26.61826        -0.77048
C         37.91441        28.58810        -0.88729
C         36.68493        29.36984        -1.32833
C         37.89653        31.54039        -1.07600
C         36.65091        30.79031        -0.93450
C         37.84931        33.06868        -1.09206
C         36.69072        33.73070        -0.27331
C         37.80760        35.98526        -0.88149
C         36.51447        35.18727        -0.79825
C         37.81766        37.42399        -0.52901
C         36.49983        38.13926        -0.48503
C         37.77944        40.41883        -0.10306
C         36.46969        39.62440        -0.24752
C         37.69501        41.50021         1.01184
C         36.38708        42.37013         0.98256
C         37.62101        44.64926         1.35861
C         36.43905        43.88391         0.67762
C         37.68457        46.25384         1.50961
C         36.35197        46.69875         0.96990
C         40.23858        24.77065         1.13223
C         39.14188        25.26115         0.76822
C         40.17870        27.49368         0.69932
C         38.90427        26.68208         0.51268
C         40.25001        28.78808         0.26375
C         39.20972        29.32028        -0.67092
C         40.57306        31.49092        -1.02266
C         39.21766        30.78500        -1.04864
C         40.44828        33.01885        -1.27178
C         39.21531        33.72938        -0.69038
C         40.39903        36.02372        -1.08642
C         39.13014        35.23827        -1.02650
C         40.38244        37.55296        -0.87644
C         39.02660        38.13746        -0.34733
C         40.26451        40.14018         0.50560
C         39.00913        39.49937         0.04392
C         40.28058        41.64259         0.71979
C         38.98241        42.37238         0.97742
C         39.82106        44.74559         0.28123
C         38.89167        43.90140         1.03508
C         39.98538        46.10539         0.29854
C         38.92049        46.90424         0.90364
C         40.23062        48.79324         0.28216
C         39.18937        48.25175         0.82361
C         42.59225        25.02144         2.25243
C         41.36169        25.38792         1.68975
C         42.46351        27.76000         1.91719
C         41.25342        26.90963         1.57612
C         42.57474        29.10717         1.27670
C         41.32484        29.73107         0.73690
C         42.66690        32.00425         0.43572
C         41.40355        31.14255         0.22017
C         42.98400        32.95457        -0.81571
C         41.73434        33.77666        -1.22177
C         42.97689        36.00257        -0.69604
C         41.73039        35.28631        -1.09708
C         42.82352        37.38078        -0.16664
C         41.63305        38.03687        -0.14063
C         42.89187        40.16002         0.40717
C         41.59172        39.40608         0.46053
C         42.90686        41.63250         0.46225
C         41.59727        42.35745         0.46563
C         42.71491        44.52019        -0.11448
C         41.65487        43.67126        -0.18630
C         42.57329        46.01214        -0.22143
C         41.16558        46.66172        -0.54861
C         42.53943        48.67979        -0.86085
C         41.26991        48.28395        -0.42762
C         43.50830        25.71340         2.74184
C         44.99684        27.51109         1.78073
C         43.76836        27.19152         2.59670
C         45.04923        28.88939         1.14075
C         43.79018        29.68753         1.03674
C         45.25665        31.68294         0.30307
C         43.92332        31.13526         0.70519
C         45.34578        33.10911        -0.09370
C         44.17529        33.81547        -0.40131
C         45.39975        35.88676        -0.00546
C         44.19479        35.21560        -0.34893
C         45.36646        37.34166         0.02367
C         44.07428        38.01891         0.41340
C         45.25887        40.25677        -0.35262
C         44.06404        39.51395         0.19022
C         45.32038        41.74564        -0.07985
C         44.11721        42.40443         0.10288
C         45.28809        44.64953        -0.16634
C         44.03345        43.88799         0.18882
C         45.12925        46.02967        -0.85411
C         43.86071        46.78342        -0.50273
C         43.59270        48.06873        -1.21735
C         47.39111        27.43683         1.54471
C         46.35663        27.05533         2.12370
C         47.68723        28.80312         1.10170
C         46.39407        29.56942         0.93649
C         47.76784        31.57248         0.16699
C         46.45526        30.78304        -0.01895
C         47.79756        32.96304         0.18857
C         46.58055        33.76423         0.11725
C         47.89852        35.88391         0.58771
C         46.61361        35.17399         0.16540
C         47.79528        37.36583         0.20377
C         46.54697        38.03666        -0.07269
C         47.83487        40.26858        -0.10148
C         46.58457        39.50414        -0.42532
C         47.84728        41.76007         0.10233
C         46.55406        42.47103        -0.22571
C         47.78399        44.60712        -0.46727
C         46.56464        43.87799        -0.33252
C         47.51701        45.99893        -0.52307
C         46.48011        46.69752        -0.51361
C         50.11317        28.57835         0.15727
C         48.75682        29.26041         0.12185
C         50.14842        31.43059         0.63363
C         48.96581        30.78550         0.31269
C         50.35363        32.82897         0.20490
C         49.08737        33.66066        -0.01486
C         50.59880        35.68616         0.30045
C         49.15628        35.19639        -0.07872
C         50.81053        37.06470         0.54956
C         48.86702        38.18574         0.41927
C         50.37208        40.18422        -0.08755
C         49.00428        39.57966         0.07092
C         50.41122        41.68774        -0.14911
C         49.11616        42.38186        -0.46187
C         50.39258        44.45326        -0.44980
C         49.05882        43.91723        -0.68802
C         51.21606        29.04759        -0.26467
C         52.66761        31.22479        -0.50808
C         51.91183        30.19185         0.11146
C         52.60939        32.46652        -0.48784
C         51.75340        33.44838         0.30472
C         52.89545        35.71936        -0.18644
C         51.74365        34.91133        -0.03901
C         52.93871        36.98746        -0.22646
C         51.92586        37.86109         0.21933
C         52.79241        40.32662         0.28028
C         51.74786        39.33808         0.01234
C         52.75326        41.55489         0.09309
C         51.61564        42.40450        -0.08905
C         51.45003        43.80608        -0.35271
O         32.31006        34.83599         1.62347
O         46.40938        30.35585        -1.33815
O         31.54401        39.88905        -0.26360
O         34.72639        36.74017        -1.52921
O         51.08216        39.60124        -1.24048
O         39.69203        35.63346        -2.31039
O         43.42274        32.15760        -1.87028
O         38.98597        28.46739        -1.84985
O         38.57527        31.03594        -2.30672
O         40.70341        30.87224         1.46650
O         47.24968        29.76744         2.09791
O         44.84072        44.55539         1.21048
O         34.77525        32.97484         1.15431
O         32.33503        37.63829         2.16314
O         42.60307        35.88943        -2.11205
O         35.46553        41.91149         2.00431
O         43.34004        46.67507         0.83190
O         36.22237        29.06150        -2.70415
O         49.81661        33.06032        -1.14282
O         37.78672        27.29244         1.26640
O         49.00602        42.94886        -1.78233
O         44.85786        31.68138         1.71562
O         41.35311        27.62685         2.86250
O         40.45461        44.06314        -0.76978
O         46.47461        39.53835        -1.94373
O         51.25762        30.78362         1.24747
O         44.83459        27.63968         0.36263
O         39.84220        41.95812         2.07627
O         38.45173        44.16004         2.42672
O         36.98479        35.64167        -2.06712
O         45.14109        40.15396        -1.85184
O         34.66740        30.62785         0.48271
O         36.64788        44.00688        -0.69092
O         42.38821        42.25987         1.69351
O         32.57821        42.07154         2.45089
O         36.40695        39.09906        -1.60525
O         41.08620        33.40709        -2.49034
O         49.85371        37.73946         1.28568
O         40.83597        39.44818         1.70296
O         34.18715        39.94453        -0.92234
O         38.00541        41.13057        -1.33365
H         37.68640        40.55690        -2.06999
O         37.69321        46.54183         2.90127
H         38.18630        45.82714         3.36369
O         37.67352        40.74319         2.22002
H         37.93209        41.32440         2.96698
O         37.06204        33.95175         1.10925
H         36.29603        33.65867         1.67137
O         49.05386        35.55941        -1.46262
H         49.51651        34.87344        -1.99591
O         39.52805        33.57797         0.70874
H         38.74786        33.80532         1.26979
O         43.90406        27.83082         3.84323
H         43.04909        27.76455         4.32155
O         40.48365        38.15509        -2.18623
H         40.18110        37.48526        -2.84392
O         48.00184        41.94792         1.55435
H         47.15121        41.74252         1.99785
O         40.94853        46.37986        -1.91914
H         40.01636        46.56536        -2.15541
O         48.05388        35.72899         2.01012
H         47.24660        36.06201         2.45456
O         44.01589        37.83078         1.86695
H         43.18197        38.23167         2.19687
O         31.97772        34.82968        -1.66323
H         31.98242        34.37584        -2.53158
O         52.19526        33.35300         1.65259
H         53.04111        33.83875         1.75012
O         48.21677        29.05536        -1.16757
H         48.66873        29.61420        -1.83384
O         37.57780        33.37421        -2.46122
H         38.19999        32.85594        -3.02188
O         45.11887        45.81685        -2.24910
H         44.82856        46.64671        -2.68958
O         41.24876        30.87271        -2.11315
H         42.07373        31.40970        -2.35442
O         42.42094        32.87436         1.53918
H         41.86820        32.38445         2.18937
O         33.50006        42.39552        -1.11328
H         34.23274        42.80710        -1.61817
