         234
 CSIRO Nanostructure Databank - Neutral Graphene Oxide Data Set
C          1.19252         1.99040        -0.39412
C          1.15869         3.30909        -0.79883
C          2.41708         1.31900        -0.23244
C          2.38866         4.05407        -1.02871
C          1.12280         6.37200        -0.82018
C          1.09988         7.68763        -0.51250
C          2.36788         5.63940        -1.15332
C          2.29237         8.53371        -0.74473
C          1.12850        10.74124        -0.43059
C          1.08446        12.09425        -0.25777
C          2.34905         9.98313        -0.37922
C          2.25447        12.82559         0.23606
C          1.21086        15.11270         0.07072
C          1.29263        16.53816         0.15183
C          2.32264        14.31217         0.16086
C          2.49101        17.19913         0.32305
C          2.56584        18.62678         0.51936
C          3.64561         2.01260        -0.33181
C          3.65944         3.43284        -0.61455
C          4.86714         1.33738        -0.16300
C          4.82733         4.17456        -0.42020
C          3.63763         6.31064        -0.84523
C          3.59198         7.79576        -0.90661
C          4.79812         5.61434        -0.53455
C          4.86763         8.56716        -0.77437
C          3.57175        10.63913        -0.20051
C          3.57198        12.04503         0.24637
C          4.85230         9.99358        -0.38217
C          4.85673        12.79194         0.30999
C          3.65610        14.94025         0.17099
C          3.75555        16.44518         0.24403
C          4.86638        14.14995         0.48962
C          5.02232        17.08002         0.69719
C          3.75724        19.25420         0.70528
C          5.01189        18.52778         0.83439
C          6.09845         2.03555        -0.07191
C          6.07895         3.50214        -0.05658
C          7.29510         1.32399         0.01276
C          7.24630         4.19944         0.19323
C          5.89668         6.40968         0.14101
C          6.09378         7.77284        -0.49614
C          7.27344         5.70014         0.43227
C          7.32828         8.51197        -0.24391
C          6.05521        10.63380        -0.05162
C          6.09683        12.03421         0.30153
C          7.32399         9.90966        -0.12593
C          7.30925        12.70031         0.50297
C          6.07563        14.83265         1.09103
C          6.17137        16.34070         0.93350
C          7.35682        14.10315         0.77802
C          7.43448        16.97222         1.24898
C          6.15584        19.18555         1.17667
C          7.46026        18.50334         1.47289
C          8.53892         1.97235         0.38814
C          8.50125         3.49590         0.54377
C          9.84103         1.31877         0.24572
C          9.81814         4.22453         0.38983
C          8.50082         6.36604        -0.15340
C          8.54131         7.76700        -0.31955
C          9.79329         5.67272        -0.00562
C          9.75400         8.47522        -0.54430
C          8.56575        10.56304         0.00954
C          8.59108        11.91845         0.64169
C          9.78792         9.88014        -0.30456
C          9.81336        12.72894         0.33007
C          8.57156        14.77196         0.93123
C          8.60782        16.18829         1.28636
C          9.81339        14.06342         0.65146
C          9.92857        16.76130         1.47818
C          8.55697        19.16927         0.64171
C          9.86454        18.88643         0.94319
C         11.04903         2.01688         0.25840
C         11.07158         3.48022         0.11207
C         12.27143         1.32599         0.44428
C         12.24091         4.15341        -0.19227
C         10.99124         6.25382        -0.69263
C         10.93805         7.72935        -0.99000
C         12.30945         5.56758        -0.56379
C         12.21203         8.47040        -1.24233
C         11.01190        10.58786        -0.38580
C         11.02411        12.03730        -0.16689
C         12.23462         9.94539        -0.93210
C         12.35238        12.72716        -0.06596
C         11.10922        14.75400         0.85539
C         11.11878        16.21643         1.02190
C         12.39003        14.05159         0.61588
C         12.33571        16.96933         0.76980
C         11.09131        19.18162         0.29715
C         12.27990        18.40386         0.45187
C         13.49737         2.03846         0.44978
C         13.49510         3.36591        -0.22885
C         14.66207         1.56784         1.00764
C         14.78635         4.04136        -0.53413
C         13.48166         6.22127        -0.91303
C         13.50072         7.66481        -1.34348
C         14.79010         5.49616        -0.94121
C         14.80689         8.44763        -1.43049
C         13.58254        10.55384        -0.62019
C         13.62980        11.95305        -0.11549
C         14.77784        10.02560        -1.41074
C         14.89781        12.73393        -0.07952
C         13.64643        14.82540         0.51538
C         13.56538        16.27734         0.58881
C         14.83370        14.13583         0.31956
C         14.78223        16.99940         0.30143
C         13.46991        19.06099         0.08121
C         14.72616        18.41881         0.06202
C         15.82848         2.50230         1.16812
C         16.08689         3.34582        -0.10526
C         17.08164         1.80027         1.60087
C         17.25710         4.28384         0.14914
C         16.11010         6.23568        -0.99398
C         16.13744         7.73229        -1.28271
C         17.30250         5.60362        -0.33653
C         17.44337         8.47248        -1.23259
C         16.12388        10.73574        -1.01462
C         16.08467        12.08429        -0.34748
C         17.45132        10.00866        -1.09228
C         17.35246        12.69613         0.25619
C         16.10629        14.88950         0.60798
C         16.01965        16.33995         0.22249
C         17.35998        14.20082         0.14940
C         17.21395        17.05344        -0.05446
C         15.90752        19.13464        -0.20235
C         17.15665        18.48138        -0.24888
C         18.30049         2.40039         1.41611
C         18.38700         3.71157         0.78035
C         19.50985         1.78502         1.91694
C         19.63502         4.39561         0.78251
C         18.51972         6.33622        -0.24231
C         18.62376         7.65992        -0.78222
C         19.72334         5.70268         0.22046
C         19.89498         8.12967        -1.06157
C         18.68948        10.74036        -0.64021
C         18.65552        12.07979        -0.17372
C         19.94112        10.26619        -1.06435
C         19.84638        12.82603        -0.10835
C         18.51477        14.92471        -0.04254
C         18.46826        16.37885        -0.13622
C         19.80752        14.25574        -0.14690
C         19.65441        17.11416        -0.35787
C         18.35297        19.20081        -0.46351
C         19.59314        18.54627        -0.50269
C         20.70421         2.43660         1.86694
C         20.80189         3.76108         1.31301
C         22.03475         4.43624         1.27065
C         21.00408         6.34925         0.15492
C         21.10366         7.64970        -0.47536
C         22.13269         5.69888         0.69935
C         22.25457         8.46945        -0.43006
C         21.18024        10.73472        -0.58930
C         21.18497        12.12258         0.02527
C         22.28816         9.87919        -0.48851
C         22.33381        12.96210        -0.45170
C         20.98077        15.00549        -0.35558
C         20.92791        16.45034        -0.45120
C         22.22898        14.30317        -0.57398
C         22.08006        17.22787        -0.63247
C         20.79846        19.28408        -0.69925
C         22.01217        18.62997        -0.75026
O         13.72447        10.78135         0.80645
O         12.06837         9.45758        -2.30025
O         19.97951         9.19566        -1.96459
O         16.92634         8.00434        -2.50441
O         14.09534         3.26949        -1.58087
O          5.26206         6.65531         1.38867
O          2.37067         4.77699        -2.30941
O          5.73158         8.09547        -1.88626
O         10.66222         6.71651        -2.03276
O         10.03476        18.02575         2.06532
O          2.85104         8.27928        -2.08503
O          8.43128         2.66912         1.72048
O         15.58013         5.56816        -2.18005
O         10.05139         5.27010         1.39111
O          2.79629        12.26801         1.48317
O         14.15356         7.91496        -2.61833
O         11.65100        12.76809        -1.33619
O         16.94250        10.73315        -2.25221
O         11.84594        14.05819         1.98063
O          3.91734        15.75091        -1.05159
O          7.50716         5.87356         1.84472
H          6.61700         6.19600         2.20144
O         16.50585         2.46684        -1.16052
H         15.76253         2.41367        -1.80699
O          5.87719        14.65825         2.54796
H          5.78281        13.69675         2.72242
O          7.67914        18.75044         2.88514
H          8.59811        18.45855         3.09421
O         16.20312        14.87692         2.10067
H         16.94388        15.47218         2.34722
O         17.25456        12.36478         1.68584
H         16.69640        13.06387         2.11222
O         21.38740        11.90192         1.46849
H         21.32266        12.77648         1.90749
O         15.46546         3.48234         2.20205
H         15.32600         2.99613         3.04196
O         14.49743        10.45679        -2.74287
H         15.22698        10.14146        -3.32051
O          8.70210        11.61555         2.09385
H          8.88667        12.46140         2.55761
H          0.25208         1.43652        -0.26581
H          0.19753         3.77598        -1.05409
H          2.42626         0.24288        -0.00933
H          0.19028         5.79349        -0.74817
H          0.16429         8.15423        -0.16989
H          0.21490        10.21810        -0.74801
H          0.16320        12.64455        -0.49537
H          0.21077        14.65931         0.01674
H          0.35615        17.11442         0.15482
H          1.63160        19.20646         0.48803
H          4.86324         0.24548        -0.02763
H          3.79136        20.34665         0.82790
H          7.29807         0.24226        -0.18812
H          6.12568        20.27126         1.35392
H          9.86512         0.21918         0.21211
H          8.29367        19.78769        -0.22725
H         12.25059         0.26851         0.74495
H         11.15946        20.08947        -0.32135
H         14.68973         0.57171         1.47590
H         13.42323        20.13026        -0.17444
H         17.01043         0.83546         2.12716
H         15.85840        20.22207        -0.36072
H         19.43850         0.78028         2.35843
H         18.30995        20.29215        -0.59468
H         21.61641         1.96340         2.25874
H         22.93217         3.94711         1.67572
H         23.11620         6.18548         0.65248
H         23.19563         7.99793        -0.10759
H         23.24917        10.33784        -0.20552
H         23.29818        12.46609        -0.63437
H         23.11408        14.87470        -0.88490
H         23.06910        16.75481        -0.68602
H         20.74484        20.37675        -0.80616
H         22.94033        19.20064        -0.89345
