         210
 CSIRO Nanostructure Databank - Neutral Graphene Oxide Data Set
C         30.46672        31.96645         0.09633
C         30.55290        33.19610        -0.12294
C         30.63194        36.25250        -0.83144
C         30.68968        37.45920        -1.14520
C         30.84463        40.56005        -1.65639
C         30.81260        41.80712        -1.70546
C         32.79932        29.09195         0.30266
C         31.70514        29.70030         0.32540
C         32.85860        31.77462        -0.07008
C         31.59138        31.10137         0.13097
C         32.90133        33.20791        -0.29998
C         31.69685        33.99496        -0.35225
C         32.99451        36.02293        -0.87974
C         31.74872        35.36522        -0.67882
C         33.04938        37.44849        -1.26708
C         31.82910        38.28442        -1.30774
C         33.15253        40.40097        -1.13867
C         31.92252        39.66581        -1.43415
C         33.13531        41.84683        -1.04162
C         31.93689        42.60786        -1.36073
C         33.14449        44.53695        -0.82141
C         32.08639        44.00689        -1.23979
C         35.48644        27.44758         0.12587
C         35.31927        28.87105         0.07425
C         34.11051        29.59328         0.13151
C         35.35747        31.66443        -0.22779
C         34.09881        31.02155        -0.04678
C         35.37169        33.09327        -0.57698
C         34.13685        33.88904        -0.50311
C         35.47626        36.01397        -0.57455
C         34.20629        35.29287        -0.71344
C         35.51589        37.43893        -0.52581
C         34.38589        38.22642        -1.03879
C         35.50004        40.33723        -0.30708
C         34.33002        39.67941        -0.81933
C         35.49612        41.77392        -0.19378
C         34.32459        42.51229        -0.57371
C         35.47184        44.60052         0.14269
C         34.35605        43.94393        -0.41660
C         35.59367        45.98390         0.42213
C         37.85535        27.23436        -0.04006
C         36.49810        26.73809         0.22490
C         37.84489        28.77294        -0.12203
C         36.56551        29.53170        -0.05708
C         37.85925        31.66097        -0.08087
C         36.58398        30.95447        -0.15517
C         37.88817        33.06569        -0.06164
C         36.70833        33.83884        -0.47973
C         37.82821        35.97256         0.15908
C         36.66517        35.29681        -0.28750
C         37.79900        37.37512         0.32263
C         36.65729        38.12856        -0.04308
C         37.84024        40.27004         0.49104
C         36.65746        39.58687         0.05547
C         37.84142        41.70904         0.60711
C         36.65585        42.45361         0.29654
C         37.78973        44.54481         1.08980
C         36.65190        43.87398         0.51311
C         37.77482        45.96366         1.36793
C         36.56185        46.57115         0.95036
C         40.35731        24.51935         0.92100
C         39.31854        25.24886         0.65951
C         40.30434        27.36507         0.90139
C         39.06332        26.55368         0.42908
C         40.30738        28.79727         0.39956
C         39.10908        29.49733         0.16529
C         40.30366        31.62932         0.34560
C         39.08501        30.92152         0.12926
C         40.28444        33.06534         0.44687
C         39.07794        33.78998         0.27444
C         40.25715        35.92184         0.66708
C         39.05750        35.22224         0.39447
C         40.26686        37.34907         0.83513
C         38.94739        38.05147         1.01131
C         40.23966        40.18432         1.09037
C         39.02885        39.53679         0.78399
C         40.18790        41.61319         1.43307
C         38.98569        42.38802         1.10068
C         40.16537        44.46406         1.82050
C         38.98955        43.79322         1.33030
C         40.03835        45.79968         2.22278
C         38.89946        46.59732         1.94604
C         40.24911        48.66614         1.67018
C         39.24389        47.98667         1.95289
C         42.92759        24.59306         0.81657
C         41.60979        25.13783         0.80888
C         42.81472        27.33551         0.57243
C         41.62330        26.60891         0.71773
C         42.82321        28.78807         0.47836
C         41.54137        29.50584         0.46400
C         42.80205        31.62401         0.79738
C         41.52137        30.90915         0.45389
C         42.75341        33.10242         0.54620
C         41.51031        33.78363         0.60306
C         42.72777        35.88265         0.85564
C         41.49821        35.19966         0.69272
C         42.70307        37.29792         1.23398
C         41.45054        38.05191         1.07184
C         42.74423        40.19546         1.26524
C         41.47888        39.48171         1.22948
C         42.74627        41.64072         1.30620
C         41.51496        42.34171         1.67740
C         42.80919        44.61641         1.35018
C         41.50321        43.83529         1.79720
C         42.77443        46.07299         1.03182
C         41.88478        46.94346         1.69511
C         42.45891        48.69357         0.25498
C         41.56678        48.27980         1.26927
C         43.96752        25.25143         0.61176
C         45.27695        27.35449         0.20482
C         44.11572        26.66223         0.48342
C         45.28000        28.80690         0.01982
C         44.01746        29.48806         0.26767
C         45.15336        31.65461        -0.08849
C         44.03522        30.94572         0.24152
C         45.13868        33.16200        -0.20284
C         43.93721        33.82060         0.41767
C         45.21406        35.94760         0.65746
C         43.94929        35.22232         0.64033
C         45.25319        37.30316         0.90195
C         44.02828        38.04561         1.25996
C         45.20958        40.18678         0.80437
C         43.97717        39.50519         1.09883
C         45.16193        41.66643         0.73754
C         43.87908        42.38269         0.90788
C         44.88513        44.42485        -0.08075
C         43.87963        43.79633         0.73996
C         44.67347        45.78086        -0.53233
C         43.62435        46.58528         0.00118
C         43.36155        47.95685        -0.22944
C         47.61552        27.37700        -0.48973
C         46.58883        26.84831        -0.04850
C         47.70592        28.82181        -0.90354
C         46.40705        29.49183        -0.41099
C         47.67756        31.66812        -0.07098
C         46.40963        30.98728        -0.61146
C         47.64126        33.02537         0.19775
C         46.43654        33.82140         0.20355
C         47.68078        35.95625         0.34626
C         46.44952        35.19613         0.44485
C         47.72146        37.33352         0.39534
C         46.54914        38.07069         1.00479
C         47.71942        40.28801         0.44493
C         46.40893        39.52095         0.59007
C         47.52564        41.60582        -0.29041
C         46.31936        42.37931         0.09254
C         47.01447        44.21609        -1.39788
C         46.05440        43.70047        -0.50663
C         46.66549        45.51072        -1.84584
C         45.66698        46.16581        -1.44992
C         50.16933        28.94936        -0.15898
C         48.90394        29.52300        -0.34898
C         50.14818        31.52712         0.41996
C         48.93574        30.92113         0.01157
C         50.19742        33.00939         0.54812
C         48.90161        33.75429         0.47097
C         50.17430        35.89068        -0.23285
C         48.89094        35.17783         0.00565
C         50.14827        37.38069        -0.23339
C         48.92429        38.07452         0.02761
C         49.98406        40.19088        -0.65304
C         48.86830        39.47698        -0.12804
C         49.84809        41.56192        -1.08334
C         48.50974        42.16886        -1.05034
C         49.48699        44.17483        -2.00709
C         48.17940        43.41438        -1.90549
C         51.32567        29.33934         0.11708
C         52.59230        31.58084         0.17223
C         51.46385        30.72657         0.73209
C         52.52368        32.82136         0.17611
C         51.46051        33.77367         0.19252
C         52.52580        36.03073        -0.34703
C         51.46021        35.11193        -0.07411
C         52.48540        37.25128        -0.57700
C         51.32540        38.11196        -0.51629
C         52.25998        40.38870        -1.18739
C         51.24953        39.49721        -0.76883
C         52.19111        41.59016        -1.54964
C         50.97426        42.31378        -1.54184
C         50.59383        43.62017        -1.99156
O         49.37182        35.34695        -1.36849
O         36.16881        33.39676        -1.76828
O         33.95404        37.76873        -2.35877
O         41.15539        46.44358         2.79224
O         43.38780        37.57838         2.50115
O         37.97615        27.89878        -1.31608
O         40.74233        41.78844         2.78821
O         49.53515        33.53604         1.76887
O         46.18597        42.35211         1.56907
O         42.50810        44.29019         2.73369
O         42.90901        31.49615         2.26084
H         43.66930        32.03994         2.55804
O         48.14717        40.57526         1.82290
H         47.54218        41.29093         2.15227
O         40.13040        27.51032         2.34220
H         40.23843        26.62556         2.75335
O         51.60652        30.62419         2.11776
H         52.46160        30.19745         2.32917
O         47.76281        28.90676        -2.34579
H         47.12300        28.26331        -2.71787
O         44.98600        33.46659        -1.63108
H         45.56901        32.83944        -2.12637
O         38.64159        37.91924         2.45744
H         39.37492        38.34467         2.95328
O         46.43626        31.23168        -2.06211
H         47.06686        30.57685        -2.46154
O         47.83807        42.92672        -3.20652
H         47.60175        43.69174        -3.77209
O         46.87056        38.14765         2.43825
H         47.50651        38.89897         2.54874
