         229
 CSIRO Nanostructure Databank - Neutral Graphene Oxide Data Set
C        -11.14915         0.76779        -0.51482
C         -9.90008         1.59494        -0.70184
C         -8.64451         0.82669        -0.34121
C         -7.45905         1.56909        -0.03949
C         -6.16324         0.84451        -0.04358
C         -4.89789         1.55104         0.32284
C         -3.67213         0.78304         0.63255
C         -2.47264         1.53274         0.90288
C         -1.22453         0.75926         1.12473
C          0.06014         1.49423         1.37278
C          1.40233         0.77814         1.24937
C          2.54268         1.61910         0.58878
C          3.83504         0.82210         0.70897
C          5.15807         1.52823         0.71775
C          6.36007         0.85811         0.15221
C          7.55430         1.54516         0.04421
C          8.80253         0.85495        -0.25845
C         10.01737         1.50392        -0.26480
C         11.24125         0.75403        -0.40645
C        -10.00961         2.94545         0.02471
C         -8.70448         3.70577        -0.00041
C         -7.48281         2.95475         0.11945
C         -6.28388         3.69129         0.60058
C         -5.00405         2.94392         0.84464
C         -3.71980         3.69329         1.03694
C         -2.44506         2.93023         0.96971
C         -1.20648         3.69011         1.01804
C          0.06706         3.00052         1.35185
C          1.37336         3.76658         1.25894
C          2.67861         3.05643         1.06568
C          3.85876         3.72871         0.93710
C          5.21008         3.02798         1.01316
C          6.37336         3.73780         0.38359
C          7.57032         3.00512         0.15769
C          8.77488         3.70098        -0.10994
C         10.11341         3.00230        -0.12308
C         -8.66282         5.07506        -0.07576
C         -7.41460         5.80960        -0.06811
C         -6.20787         5.14832         0.33823
C         -4.98758         5.83293         0.33772
C         -3.73977         5.19023         0.84315
C         -2.41728         5.86291         0.62536
C         -1.17855         5.04793         0.71900
C          0.07287         5.76342         0.51919
C          1.30249         5.16923         0.80837
C          2.56993         5.91537         0.70765
C          3.88370         5.23888         1.12531
C          5.12495         5.93469         0.51495
C          6.35915         5.13889         0.25752
C          7.52315         5.79453        -0.24018
C          8.73316         5.07551        -0.32923
C         -7.37734         7.15620        -0.43656
C         -6.14666         7.84748        -0.52844
C         -4.93461         7.17308        -0.17422
C         -3.70118         7.84336        -0.38009
C         -2.40801         7.20506        -0.02966
C         -1.19671         7.65547        -0.82147
C          0.05480         6.98646        -0.27402
C          1.24484         7.39822        -0.79940
C          2.53996         7.15860        -0.17884
C          3.75882         7.74730        -0.87201
C          5.05107         7.25928        -0.22616
C          6.28449         7.82311        -0.83588
C          7.47544         7.15516        -0.70924
C         -6.08208         9.19897        -0.98233
C         -4.87516         9.85117        -1.10570
C         -3.65503         9.17397        -0.81940
C         -2.37404         9.85198        -0.89855
C         -1.16475         9.20486        -0.85050
C          0.05651        10.00431        -0.84018
C          1.26958         9.53513        -1.26775
C          2.60875        10.06193        -1.12912
C          3.74103         9.27579        -1.03643
C          5.02979         9.89761        -1.23719
C          6.20363         9.19643        -1.26567
C        -11.11194        -0.57503        -0.43602
C         -9.85976        -1.32633        -0.47776
C         -8.60944        -0.56930        -0.42968
C         -7.36048        -1.28308        -0.28540
C         -6.16051        -0.62868        -0.01973
C         -4.91774        -1.33607         0.17949
C         -3.69118        -0.61267         0.47967
C         -2.44710        -1.35988         0.56613
C         -1.22293        -0.68378         0.77536
C          0.00810        -1.37522         0.70254
C          1.26189        -0.55950         0.42681
C          2.58005        -1.30270         0.53461
C          3.75216        -0.62916         0.40675
C          4.99519        -1.32893         0.00862
C          6.24114        -0.55752        -0.28949
C          7.48950        -1.31339        -0.67894
C          8.78673        -0.58542        -0.62455
C         10.04347        -1.37049        -0.58286
C         11.26341        -0.61191        -0.51716
C         -9.89137        -2.69657        -0.44162
C         -8.67245        -3.50343        -0.59752
C         -7.33116        -2.73106        -0.52149
C         -6.12925        -3.48003        -0.14024
C         -4.91593        -2.74915         0.13492
C         -3.67822        -3.49199         0.23359
C         -2.44431        -2.76856         0.36296
C         -1.20949        -3.48035         0.31730
C          0.00919        -2.75267         0.42301
C          1.27819        -3.50759         0.41170
C          2.59386        -2.77279         0.57418
C          3.88115        -3.46834         0.36793
C          5.06877        -2.79781         0.19933
C          6.36662        -3.46223         0.06299
C          7.44739        -2.84934        -0.80384
C          8.79942        -3.52735        -0.54525
C         10.01252        -2.75123        -0.61313
C         -8.63095        -4.92651        -0.28430
C         -7.42256        -5.60169        -0.19405
C         -6.18009        -4.86683        -0.10461
C         -4.95885        -5.63880         0.28409
C         -3.67048        -4.89100         0.15228
C         -2.43715        -5.63216         0.12026
C         -1.20000        -4.90467         0.15999
C          0.04013        -5.58991        -0.06272
C          1.23950        -4.90334        -0.04886
C          2.50027        -5.62977        -0.24544
C          3.79090        -4.92618         0.14218
C          4.79605        -5.82868         0.65550
C          6.60994        -4.71342         0.55920
C          7.64496        -5.62481         0.06954
C          8.84129        -4.89324        -0.34274
C         -7.39402        -7.05739        -0.13388
C         -6.22442        -7.76699        -0.25947
C         -4.95333        -7.00547        -0.35523
C         -3.65256        -7.75268        -0.42071
C         -2.43569        -7.04029        -0.01994
C         -1.20674        -7.82822         0.05960
C          0.08921        -7.07490        -0.06238
C          1.26858        -7.79779        -0.68676
C          2.54162        -7.09799        -0.28634
C          3.74280        -7.76626        -0.26609
C          4.92577        -7.12738         0.25540
C          6.25302        -7.81385         0.53490
C          7.45866        -6.99049         0.00848
C         -6.14523        -9.20371        -0.36602
C         -4.95697        -9.88094        -0.45630
C         -3.66670        -9.23421        -0.41751
C         -2.48066        -9.93853        -0.35862
C         -1.20008        -9.28387        -0.25172
C          0.00495        -9.95763        -0.30691
C          1.29361        -9.28435        -0.37219
C          2.49829        -9.92802        -0.36745
C          3.77144        -9.19008        -0.75411
C          5.09121        -9.85975        -0.43156
C          6.19616        -9.23706         0.01494
O         -5.24565        -4.74621         2.49468
H         -4.36509        -4.63894         2.93025
O          1.13318        -7.67032        -2.12601
H          1.92551        -8.11080        -2.51937
O         -0.33796        -7.55747         1.23860
O          5.73722        -5.25629         1.52643
O          3.79167         7.17804        -2.20759
H          3.01680         7.53814        -2.69639
O          6.43709        -7.92491         1.97041
H          6.36615        -7.01400         2.33712
O          3.42265        -5.10806        -1.27545
O         -0.69937         0.97924         2.51338
O          1.03287        -0.30553        -0.94169
O         -5.10608        -5.98953         1.77539
O          3.70668        -9.10167        -2.22715
H          4.47937        -8.57448        -2.52413
O          7.11169        -3.15560        -2.17695
H          7.41901        -2.39436        -2.72172
O         -3.81445         4.60379         2.17774
O          3.99238         5.46961         2.55899
O          5.53572         3.02190         2.52296
H          3.20011         5.08638         2.99220
O         -5.92423         3.16605         1.94701
O          2.28276         1.85054        -0.80716
H          1.87467         1.01189        -1.19999
O         10.82805         3.33860         1.08420
H         10.23987         3.15752         1.84645
O          5.26464        -0.82297        -1.37059
O         -1.40063         7.20702        -2.18503
H         -0.62960         7.52445        -2.70593
O          1.84768         0.44483         2.56095
H          1.06200         0.43323         3.15438
O          0.72861         3.53285         2.55946
O          1.92930        -3.37021         1.75709
O          5.25665         7.22116         1.20955
O          4.61260         0.89607         1.94497
O         -9.79499         1.92029        -2.11779
H         -9.65283         1.08517        -2.61127
O        -10.35096         2.73229         1.39826
H        -11.12413         2.13213         1.43606
O         -2.23929         7.11237         1.41259
O          6.32465         4.17182         2.86981
H          5.62988         4.87678         3.01599
O          1.23607         8.26021        -1.91236
O         -4.27996        -7.12127        -1.62835
O         -5.26463         1.41869        -1.09789
O         -7.90562        -3.13537        -1.80011
O          8.04724        -0.75106        -1.91588
O          2.47034         7.26957         1.26642
H         12.22242        -1.14823        -0.56421
H         12.18731         1.31305        -0.37470
H         10.73451         3.39910        -0.97043
H          9.65328         5.60866        -0.61019
H          8.40829         7.61979        -1.06281
H          7.13798         9.70990        -1.53770
H          5.03889        10.97197        -1.47612
H          2.74034        11.15652        -1.14519
H         -0.01015        11.02123        -0.42406
H         -2.38997        10.94742        -1.01323
H         -4.84227        10.89780        -1.44092
H         -7.01914         9.71818        -1.23040
H         -8.30885         7.67150        -0.71383
H         -9.59652         5.64387        -0.20159
H        -10.81803         3.55310        -0.47572
H        -12.11772         1.29217        -0.53099
H        -12.04615        -1.15244        -0.35782
H        -10.85645        -3.21583        -0.33673
H         -9.57737        -5.46921        -0.14030
H         -8.35593        -7.59141        -0.09385
H         -7.08771        -9.77150        -0.36544
H         -4.97081       -10.97928        -0.52018
H         -2.50367       -11.03834        -0.40246
H         -0.00531       -11.05455        -0.40822
H          2.54608       -11.01695        -0.20854
H          5.16849       -10.92232        -0.71576
H          7.11709        -9.83031         0.13827
H          8.29130        -7.58443        -0.40563
H          9.80949        -5.41878        -0.35440
H         10.96820        -3.29828        -0.57003
