         349
 CSIRO Nanostructure Databank - Neutral Graphene Oxide Data Set
C          1.41288         3.49732        -1.89225
C          0.22199         4.16203        -2.02011
C          1.23802         6.29406        -1.38223
C          0.13625         5.56396        -1.77010
C          1.11831         7.75551        -1.08042
C          0.06167         8.59781        -1.65918
C          1.23451        10.68770        -1.04006
C          0.07874         9.95261        -1.52048
C          1.23821        12.16001        -0.95124
C          0.12893        12.92165        -1.26041
C          1.10893        15.22339        -1.45981
C          0.07974        14.35860        -1.15612
C          1.16337        16.59825        -0.93843
C          0.01908        17.34860        -0.83359
C          1.13691        19.30044         0.12973
C         -0.00526        18.65997        -0.25354
C          1.16139        20.54956         0.99861
C         -0.09382        21.38412         0.94409
C          1.13247        23.52036         1.00167
C         -0.06931        22.75344         0.92828
C          1.16667        24.93929         0.87047
C         -0.00969        25.67698         0.53452
C          1.20778        27.77684         0.63500
C          0.01209        27.05064         0.41999
C          1.23880        29.20453         0.41981
C          3.81324         3.50555        -1.37422
C          2.60948         4.19724        -1.52203
C          3.68161         6.31928        -0.91032
C          2.52367         5.62734        -1.25261
C          3.64206         7.72734        -0.46757
C          2.36400         8.50860        -0.63119
C          3.69119        10.68529        -0.69735
C          2.39456         9.97436        -0.77932
C          3.64143        12.12561        -0.37360
C          2.45525        12.79594        -0.43035
C          3.72414        14.99025        -0.18085
C          2.50995        14.16803         0.20369
C          3.70454        16.45072        -0.23859
C          2.47761        17.21793        -0.60246
C          3.67689        19.29320         0.42026
C          2.44789        18.68095        -0.14627
C          3.66863        20.66718         0.70747
C          2.37057        21.42319         0.58395
C          3.67100        23.50540         1.14952
C          2.38372        22.74963         1.35061
C          3.64329        24.96057         1.53034
C          2.38360        25.66601         1.06801
C          3.64274        27.80851         1.23145
C          2.38936        27.06217         0.97546
C          3.64003        29.31175         0.97178
C          2.38293        29.92816         0.51784
C          6.25710         3.51945        -0.97275
C          5.04192         4.17562        -1.10086
C          6.28897         6.38284        -0.69817
C          4.99308         5.65407        -1.05228
C          6.23511         7.78320        -0.28599
C          4.92573         8.45981        -0.22997
C          6.16800        10.64715         0.02949
C          4.94900         9.93673        -0.41035
C          6.15519        12.05806         0.05131
C          4.85414        12.81493         0.22328
C          6.19089        14.98158        -0.29858
C          4.90106        14.27763        -0.21068
C          6.16266        16.44645         0.08413
C          4.85780        17.14044         0.13489
C          6.11390        19.24851         0.70838
C          4.89402        18.56408         0.42729
C          6.10470        20.65851         0.90361
C          4.87405        21.36914         0.90019
C          6.13213        23.53198         1.06212
C          4.86454        22.82131         1.04659
C          6.14582        24.94517         1.06581
C          4.92163        25.68542         1.16835
C          6.14569        27.80467         0.89442
C          4.92415        27.07560         1.10721
C          6.11090        29.24739         0.65393
C          4.91417        29.94437         0.63015
C          8.62232         3.43772        -0.30666
C          7.48315         4.17549        -0.57344
C          8.62548         6.29117         0.10483
C          7.49263         5.61147        -0.36950
C          8.59278         7.70346         0.32181
C          7.38584         8.45306         0.11252
C          8.57822        10.62966         0.33517
C          7.36811         9.91908         0.21384
C          8.59842        12.03593         0.18701
C          7.37051        12.73689         0.09257
C          8.60346        14.82618         0.57356
C          7.49162        14.19432        -0.24672
C          8.59062        16.27035         0.95393
C          7.26039        17.03601         0.96700
C          8.57165        19.15777         1.00967
C          7.38589        18.52876         0.79349
C          8.63799        20.64165         1.26334
C          7.33400        21.38600         1.07551
C          8.64656        23.52308         1.14422
C          7.35308        22.77837         1.09081
C          8.61319        24.99316         1.02757
C          7.40438        25.67196         0.97731
C          8.59750        27.83188         0.58883
C          7.36119        27.11855         0.84705
C          8.55854        29.26912         0.30530
C          7.32834        29.92791         0.34910
C         11.10902         3.34405         0.13129
C          9.79594         4.02702         0.42014
C         11.02953         6.17233         0.65273
C          9.86302         5.54398         0.35209
C         11.09847         7.64914         1.01087
C          9.76568         8.38773         0.86031
C         11.09257        10.58967         0.51846
C          9.81290         9.92714         0.72783
C         11.10590        11.98703        -0.06928
C          9.85054        12.75339         0.19464
C         11.10980        14.86050         0.53546
C          9.89883        14.13560         0.37636
C         11.09053        16.28765         0.74429
C          9.87997        16.98052         0.89935
C         11.06821        19.17789         0.63837
C          9.89222        18.44312         1.26484
C         10.99406        20.50698         0.30269
C          9.70310        21.29965         0.37341
C         11.20267        23.46954         0.35645
C          9.91619        22.75234         0.80098
C         10.90433        24.95408         0.09445
C          9.94739        25.71138         1.02938
C         11.02704        27.90395         0.24372
C          9.79835        27.16365         0.58326
C         10.98445        29.32298        -0.15258
C          9.73973        29.97431        -0.04486
C         13.55921         3.27257         0.48461
C         12.30837         3.95685         0.41276
C         13.50385         6.12727         0.18987
C         12.32329         5.40727         0.84731
C         13.50572         7.62134         0.05041
C         12.23786         8.37340         0.29286
C         13.50715        10.51619         0.20176
C         12.29576         9.85921         0.41676
C         13.54666        11.95737         0.51239
C         12.33529        12.74612         0.36117
C         13.60369        14.86503         0.59420
C         12.35202        14.13398         0.52094
C         13.58469        16.30994         0.64622
C         12.35452        17.00588         0.74850
C         13.52256        19.14289         0.41048
C         12.33338        18.45159         0.60198
C         13.49228        20.47180        -0.19894
C         12.14343        21.18185        -0.33971
C         13.44101        23.27444        -0.94241
C         12.03597        22.67611        -0.71622
C         13.51009        24.62876        -1.35513
C         11.72122        25.70201        -0.68377
C         13.30101        27.71036        -1.03216
C         12.12352        27.07933        -0.39301
C         13.30269        29.13515        -1.06224
C         12.12838        29.89246        -0.72888
C         16.03195         3.32818         0.68597
C         14.80663         3.95806         0.56133
C         16.00964         6.24629         0.59678
C         14.80177         5.41517         0.22508
C         16.00475         7.68648         0.11981
C         14.80517         8.33997        -0.00566
C         16.06360        10.57006        -0.16738
C         14.74674         9.81227        -0.17578
C         16.09820        12.00878         0.15840
C         14.87125        12.71620         0.52696
C         16.06256        14.88484         0.34696
C         14.82359        14.18461         0.47579
C         16.05026        16.33377         0.42776
C         14.84072        17.01621         0.58365
C         16.05417        19.23290         0.26929
C         14.83716        18.51981         0.81594
C         16.00555        20.55252        -0.15587
C         14.74427        21.24066        -0.31153
C         15.91638        23.32331        -0.94301
C         14.65902        22.58640        -0.70938
C         15.88415        24.83168        -1.11391
C         14.58397        25.51204        -1.17797
C         15.72594        27.71470        -1.36380
C         14.50902        26.97101        -1.22604
C         15.69420        29.11308        -1.56280
C         14.48875        29.80542        -1.46241
C         18.57960         3.36487         0.65406
C         17.29327         4.01913         0.21940
C         18.47220         6.22620         0.52381
C         17.30876         5.51511         0.43877
C         18.48219         7.64968         0.22985
C         17.29152         8.37989         0.04281
C         18.52843        10.53841         0.00836
C         17.33202         9.81356        -0.07435
C         18.55569        11.98173         0.10141
C         17.29251        12.71686         0.11421
C         18.51080        14.88749         0.01631
C         17.25746        14.15383         0.18113
C         18.49125        16.34497         0.22315
C         17.32379        17.04198         0.37792
C         18.47671        19.13103        -0.40917
C         17.38687        18.56126         0.53181
C         18.53478        20.64382        -0.33590
C         17.24921        21.30858        -0.39868
C         18.42432        23.45612        -0.83049
C         17.19197        22.67008        -0.59691
C         18.38202        24.92802        -0.53254
C         17.06489        25.62882        -0.68967
C         18.29995        27.82532        -1.12050
C         17.01569        27.10170        -0.95202
C         18.25599        29.17432        -1.52476
C         16.96107        29.88040        -1.87483
C         19.69126         4.05781         0.93004
C         20.99311         6.20332         0.57678
C         19.72276         5.56034         1.05964
C         21.01198         7.47140         0.14208
C         19.77553         8.25755        -0.07881
C         21.03574        10.55976         0.16968
C         19.80974         9.83108        -0.14589
C         20.99139        11.89912         0.42138
C         19.77082        12.64786         0.30344
C         20.94937        14.91424         0.76376
C         19.82873        14.12916         0.19199
C         20.95269        16.26028         0.73722
C         19.82533        17.00183         0.11252
C         21.02287        19.30129         0.09083
C         19.84261        18.46134        -0.19959
C         20.97491        20.64112        -0.07150
C         19.73483        21.33002        -0.38620
C         20.97136        23.62899        -0.61578
C         19.75958        22.77126        -0.73574
C         20.92273        24.97414        -0.67865
C         19.64716        25.73420        -0.53536
C         20.72353        27.95108        -1.01573
C         19.55098        27.19105        -0.87787
C         20.67265        29.29702        -1.37975
C         19.44672        29.90389        -1.64643
O         12.30893        25.16096        -1.82835
O         20.12407        17.47308        -1.26345
O         19.83889         8.98596        -1.33848
O          8.45178        15.17322         1.98494
O          9.60439        23.05470         2.17493
O         12.70046        20.44991        -1.47457
O         14.27787        12.18650         1.78294
O          4.61456        10.31922        -1.80919
O          3.58148        28.75158         2.34360
O          2.72449        18.32284        -1.55204
O         15.32790        10.31676        -1.43385
O         12.56176         7.96587        -1.05476
O         14.10529         5.59046        -1.04559
O          6.37606        16.04163        -1.30991
O          1.80851        14.49376         1.15091
O         19.12197        23.06098        -2.05099
O         19.36183        14.53680        -1.13424
O         16.80328        26.52999         0.41287
O         12.15111        27.42158         1.05622
O         19.00400        25.31359         0.73071
O          4.15817         7.94008         0.91594
O          5.82515         6.25234        -2.11748
O          9.54447         9.24115         2.02836
O         16.08066        23.96422        -2.27739
O          1.35790         8.05460         0.33700
O         11.47304         7.71819         2.41935
H         10.85716         8.37296         2.84012
O         12.07083        23.49248         1.51012
H         11.52117        23.83017         2.26045
O         11.19112        11.80717        -1.53775
H         10.83530        12.61708        -1.96203
O         10.13529        18.43563         2.71307
H          9.53046        17.77272         3.10990
O          2.20990        21.77902        -0.81199
H          2.32741        20.96907        -1.35343
O         10.47360        25.71430         2.38432
H         11.27464        26.29274         2.36029
O          4.66903        12.83556         1.67703
H          3.78876        13.22462         1.87572
O          1.33534        20.05844         2.34928
H          1.56998        20.83493         2.91376
O         19.67654         5.83200         2.50765
H         18.95748         5.28292         2.88676
O          9.14837        21.32313        -0.96507
H          9.80424        21.77721        -1.55725
O          9.55102         3.73911         1.85323
H         10.32770         4.08235         2.34931
O          9.04065        20.76918         2.64541
H          8.48728        20.16763         3.18425
O         15.86207         6.36429         2.06785
H         16.64797         6.84549         2.40564
O         11.29553        22.70925        -1.95708
H         11.78341        22.13669        -2.59074
O         14.94953        18.68758         2.29127
H         14.14429        18.29319         2.69262
O          6.69893        16.92107         2.30930
H          7.02091        16.06372         2.68175
O         17.25416         3.85034        -1.24577
H         16.43855         4.28686        -1.57616
O          2.12470        14.83830        -2.28687
H          2.70405        15.60177        -2.48665
O          3.56232        24.96645         3.01748
H          4.47445        24.85062         3.36148
O         18.02487        18.84162        -1.75082
H         18.67972        18.21800        -2.14930
O          8.03565        14.17557        -1.60434
H          7.67468        14.96379        -2.07438
O         16.92904        31.17354        -1.25558
H         16.95413        31.04669        -0.28491
O          2.32387        22.48700         2.79158
H          2.56393        23.34133         3.23439
O         12.60760         5.34014         2.27281
H         12.36432         6.21112         2.67446
O         17.76093        18.85783         1.90221
H         16.93776        18.79447         2.44318
H          1.47280         2.41657        -2.08539
H         -0.68708         3.61916        -2.31336
H         -0.84013         6.05621        -1.88030
H         -0.77201         8.12073        -2.19484
H         -0.77418        10.52284        -1.91486
H         -0.82590        12.41335        -1.47081
H         -0.80478        14.78312        -0.65657
H         -0.93878        16.90959        -1.14804
H         -0.98828        19.11472        -0.06909
H         -1.06827        20.87386         0.96476
H         -1.03337        23.28093         0.86754
H         -0.95383        25.14501         0.35918
H         -0.90530        27.59554         0.15471
H          0.30712        29.69189         0.09606
H          3.82209         2.41230        -1.50081
H          2.39639        30.99196         0.23744
H          6.28061         2.42422        -1.08132
H          4.91013        31.00120         0.32296
H          8.61214         2.34847        -0.46508
H          7.28810        31.00805         0.14452
H         11.08775         2.27294        -0.12529
H          9.66138        31.03952        -0.30855
H         13.56411         2.17196         0.44359
H         12.12195        30.96652        -0.96850
H         16.06959         2.23842         0.84277
H         14.49170        30.90127        -1.55497
H         18.61130         2.26410         0.62895
H         16.97159        30.07271        -2.98565
H         20.61714         3.52198         1.19436
H         21.92969         5.63254         0.66621
H         21.95722         7.92421        -0.19199
H         21.99851        10.03140         0.15509
H         21.92794        12.43684         0.62499
H         21.77577        14.37507         1.24999
H         21.80186        16.82087         1.15528
H         21.97207        18.80127         0.33005
H         21.88727        21.23682         0.07048
H         21.95452        23.13514        -0.62793
H         21.86795        25.53615        -0.70159
H         21.70207        27.49163        -0.82287
H         21.60346        29.87396        -1.46660
H         19.39995        30.96052        -1.94393
