         490
 CSIRO Nanostructure Databank - Neutral Graphene Oxide Data Set
C         37.51914        50.01665         0.33875
C         36.30980        50.66710         0.14148
C         37.49012        52.70981        -0.37453
C         36.29510        52.02258        -0.21917
C         40.08100        48.64828         0.74872
C         40.02177        50.00797         0.37663
C         38.75159        50.69380         0.18423
C         39.99072        52.79389        -0.32697
C         38.73626        52.07004        -0.17761
C         40.02397        54.16501        -0.65376
C         42.51735        48.66401         0.73166
C         41.29275        47.99776         0.93791
C         42.48960        50.02533         0.32363
C         41.24557        50.71265         0.18256
C         42.46078        52.82607        -0.26486
C         41.22891        52.11319        -0.14188
C         42.46133        54.23366        -0.52904
C         41.22184        54.86472        -0.74354
C         45.05913        46.16525         1.98179
C         43.87490        46.78503         1.69698
C         44.97672        48.61144         0.48732
C         43.79443        47.98725         0.91358
C         44.97955        49.99436         0.10018
C         43.72029        50.72171         0.06369
C         44.94230        52.82499        -0.46113
C         43.68994        52.09440        -0.19416
C         44.96249        54.28019        -0.05156
C         43.70320        55.00221        -0.49587
C         44.98567        57.08093        -0.27970
C         43.77277        56.36378        -0.61343
C         47.68973        44.67318         2.17923
C         47.59502        45.92029         1.63134
C         46.28067        46.51731         1.27367
C         47.49758        48.58035         0.24530
C         46.24242        47.85850         0.48940
C         47.44237        49.92221        -0.06453
C         46.19868        50.63191        -0.17380
C         47.48020        52.84642        -0.15429
C         46.23828        52.07918        -0.46854
C         47.47252        54.21005         0.01069
C         46.26665        54.99367        -0.49907
C         47.34932        57.14230         0.55238
C         46.18364        56.45938        -0.11858
C         47.55887        58.60102         0.21286
C         50.11169        44.49566         1.78321
C         48.92374        43.92979         2.17522
C         50.11739        45.99273         1.57549
C         48.81632        46.45728         0.90066
C         50.02978        48.38696        -0.23756
C         48.83190        47.99447         0.68761
C         50.01214        49.88037        -0.55010
C         48.67612        50.65859        -0.45081
C         49.92455        52.81837        -0.35226
C         48.73085        52.11435        -0.22754
C         49.99810        54.20476         0.00042
C         48.71840        54.85926         0.59604
C         49.72057        57.11536         0.96040
C         48.65746        56.38564         0.51340
C         49.95934        58.52798         0.74313
C         48.74593        59.23926         0.34825
C         52.71681        41.76692         2.04989
C         51.46450        42.44361         1.91782
C         52.63591        44.64769         2.00933
C         51.38401        43.80851         1.84651
C         52.57003        45.95748         1.24216
C         51.37761        46.55563         0.93393
C         52.50106        48.65511         0.27191
C         51.34391        47.91015         0.38221
C         52.45501        50.16195         0.16135
C         51.20853        50.67248        -0.48259
C         52.42647        52.82354        -0.81750
C         51.12761        52.09146        -0.95376
C         52.40751        54.18894        -0.69572
C         51.24508        54.83691        -0.13551
C         52.56327        56.95452         0.19309
C         51.57025        56.08367         0.50805
C         52.58259        58.29935         0.91495
C         51.24047        59.09038         0.78582
C         52.51999        61.19292         1.06097
C         51.34754        60.53032         0.88861
C         55.14748        40.20771         1.67287
C         55.23525        41.67463         2.04290
C         53.91525        42.42282         1.94275
C         55.08668        44.52526         1.41384
C         53.92942        43.87039         1.74932
C         55.13204        45.99553         1.25097
C         53.82629        46.72070         1.12761
C         54.98007        48.75238         0.27520
C         53.80257        48.07599         0.53747
C         54.94657        50.10424        -0.26261
C         53.71867        50.76986        -0.41177
C         54.88661        52.83780        -1.04987
C         53.69008        52.12567        -0.83755
C         54.86547        54.28243        -1.50875
C         53.58819        55.00496        -1.07407
C         54.91568        57.19297        -0.74473
C         53.62951        56.46213        -0.71320
C         54.79178        58.59325        -0.35194
C         53.75732        59.12106         0.41843
C         55.08079        61.37240         0.61001
C         53.82076        60.52652         0.88131
C         55.07479        62.84469         0.55760
C         57.55920        40.11894         1.15504
C         56.21700        39.50054         1.27172
C         57.56897        41.62770         1.07215
C         56.31458        42.34684         1.23238
C         57.35210        44.41594         0.28987
C         56.43325        43.83581         1.37564
C         57.44635        45.92912         0.35684
C         56.34158        46.65615         0.69922
C         57.46946        48.75297        -0.13482
C         56.33191        48.17622         0.67985
C         57.39650        50.04318        -0.63166
C         56.15750        50.76965        -0.62970
C         57.33108        52.87988        -1.25350
C         56.12267        52.15231        -0.99838
C         57.34995        54.30068        -1.16866
C         56.13342        55.03937        -1.12210
C         57.41745        57.14977        -1.01414
C         56.11915        56.48204        -1.01186
C         57.54557        58.48669        -1.30471
C         55.79078        59.52674        -0.81308
C         57.34019        61.44841        -0.57487
C         56.10384        60.74499        -0.26122
C         57.34611        62.84901        -0.40231
C         56.12869        63.51549         0.02974
C         59.78985        37.26843         0.04545
C         58.68031        37.97882         0.49341
C         59.86231        40.08331         0.14875
C         58.70112        39.37794         0.56188
C         59.88080        41.54704         0.14163
C         58.72897        42.30163         0.45748
C         59.87747        44.40020        -0.04206
C         58.69288        43.70362         0.26507
C         59.89155        45.84530        -0.16209
C         58.68347        46.59483        -0.03444
C         59.90352        48.65643        -0.63122
C         58.68038        47.98486        -0.27760
C         59.89420        50.03314        -0.99322
C         58.55477        50.59397        -1.44261
C         59.85340        52.87331        -1.68913
C         58.55190        52.11836        -1.58426
C         59.82026        54.32334        -1.37901
C         58.64629        54.97677        -1.13011
C         59.93656        57.17946        -1.00361
C         58.67740        56.40921        -0.63950
C         59.91596        58.62777        -0.90526
C         58.67482        59.31440        -0.96712
C         59.81412        61.45823        -0.68702
C         58.58306        60.73419        -0.81377
C         59.80210        62.88738        -0.59006
C         58.56638        63.59363        -0.54076
C         59.79457        65.71055        -0.52501
C         58.60406        65.01810        -0.54218
C         62.17944        35.71250        -0.61310
C         62.16176        37.18878        -0.91434
C         60.95381        37.93952        -0.35850
C         62.21407        40.05458        -0.84235
C         60.98076        39.34794        -0.32112
C         62.28111        41.52065        -0.48272
C         61.07398        42.24163        -0.20467
C         62.32880        44.35787        -0.39462
C         61.09268        43.66639        -0.20518
C         62.35161        45.78598        -0.42910
C         61.12021        46.52273        -0.35525
C         62.35475        48.65554        -0.72043
C         61.13272        47.94885        -0.53790
C         62.34010        50.01704        -1.01468
C         61.10584        50.72331        -1.15930
C         62.31718        52.87510        -1.38173
C         61.14484        52.16685        -1.44809
C         62.36734        54.32674        -1.70243
C         61.04710        55.10688        -1.78878
C         62.39291        57.20525        -1.22497
C         61.12727        56.51636        -1.24650
C         62.40386        58.71305        -1.26965
C         61.11012        59.36336        -0.87132
C         62.29471        61.47632        -0.46234
C         61.06589        60.76698        -0.71265
C         62.24242        62.86934        -0.30891
C         61.03402        63.60217        -0.47486
C         62.28613        65.75579        -0.34862
C         61.04882        65.03993        -0.43605
C         62.35298        67.20257        -0.34344
C         64.62532        35.68087        -0.42971
C         63.32614        35.02480        -0.44382
C         64.60872        37.12548        -0.30811
C         63.44570        37.86286        -0.46525
C         64.65892        40.00492        -0.35412
C         63.48012        39.30447        -0.47784
C         64.74621        41.41457        -0.88643
C         63.48784        42.19216        -0.58055
C         64.79261        44.29894        -0.57885
C         63.53703        43.61984        -0.51394
C         64.79464        45.71943        -0.55231
C         63.59954        46.45314        -0.51388
C         64.79664        48.53827        -1.31446
C         63.66756        47.96645        -0.42716
C         64.89624        50.03256        -1.09684
C         63.60479        50.76418        -1.40290
C         64.87590        52.88872        -0.95480
C         63.55391        52.17634        -0.82641
C         65.00341        54.32437        -1.41127
C         63.67146        55.07648        -1.56287
C         64.82333        57.22339        -0.84019
C         63.61865        56.53480        -1.23223
C         64.80722        58.62044        -0.53327
C         63.60725        59.36351        -0.65011
C         64.74187        61.41237         0.06310
C         63.54237        60.73808        -0.33128
C         64.69666        62.84448         0.40429
C         63.41835        63.60909         0.17653
C         64.74007        65.71133        -0.01121
C         63.50455        65.05526        -0.09307
C         64.83449        67.12042        -0.55196
C         63.53680        67.86186        -0.35153
C         67.07696        32.88526        -0.61196
C         65.88651        33.55742        -0.55598
C         67.13093        35.73746        -0.68892
C         65.83038        34.98590        -0.48246
C         67.13596        37.11212        -0.07231
C         65.85720        37.78790         0.09109
C         67.19090        40.00196        -0.03183
C         65.88209        39.34071         0.08598
C         67.22512        41.40974        -0.26200
C         66.01381        42.13979        -0.49789
C         67.31235        44.23002        -0.61275
C         66.01397        43.53278        -0.53509
C         67.33708        45.71568        -0.69167
C         66.08111        46.47962        -0.35618
C         67.41932        48.55381        -1.01123
C         66.11442        47.82461        -1.07189
C         67.43974        50.07461        -1.10703
C         66.06037        50.69940        -0.87301
C         67.26993        52.83670        -0.39640
C         66.05590        52.16653        -0.75318
C         67.17574        54.28306        -0.11290
C         66.04949        55.08223        -0.64065
C         67.27491        57.20280        -0.27675
C         66.01974        56.45795        -0.56418
C         67.22207        58.64077         0.00680
C         66.02086        59.31444        -0.11560
C         67.16897        61.45976         0.50376
C         65.96779        60.74525         0.12543
C         67.14999        62.88494         0.66065
C         65.94734        63.60622         0.46912
C         67.14938        65.74728         0.62601
C         65.93640        65.01756         0.37180
C         67.14737        67.17649         0.45729
C         66.06717        67.86378        -0.08891
C         67.30812        69.98941        -0.14881
C         66.16237        69.27956        -0.33892
C         69.59202        31.32704        -0.21298
C         69.59610        32.76438        -0.51387
C         68.34409        33.56179        -0.49939
C         69.60717        35.66223        -0.06478
C         68.38380        34.94339        -0.39200
C         69.56683        37.05934         0.21907
C         68.33686        37.79767         0.15434
C         69.63040        39.94041         0.29500
C         68.36121        39.25556         0.20215
C         69.67534        41.36464         0.15956
C         68.48385        42.09534        -0.13138
C         69.73806        44.21019         0.00719
C         68.54449        43.50640        -0.25092
C         69.74359        45.71682         0.23083
C         68.57589        46.46003        -0.36365
C         69.80056        48.56934        -0.11403
C         68.60010        47.82287        -0.46206
C         69.73702        49.99636         0.01404
C         68.54955        50.72787        -0.30044
C         69.65924        52.83496         0.38564
C         68.47797        52.12840        -0.09785
C         69.66074        54.24293         0.55823
C         68.40588        54.99496         0.36709
C         69.65763        57.16532         0.73926
C         68.52211        56.45996         0.09722
C         69.63427        58.57067         0.84600
C         68.53893        59.36773         0.16174
C         69.49779        61.45446         1.21614
C         68.38286        60.76893         0.70191
C         69.49962        62.86106         1.31486
C         68.34623        63.59804         0.97782
C         69.55114        65.73419         1.27753
C         68.33504        65.04670         0.99986
C         69.56000        67.20140         1.38853
C         68.31599        67.95201         0.92754
C         69.79732        70.06772         0.66216
C         68.52332        69.32768         0.35910
C         69.89860        71.54060         0.49885
C         71.97947        31.36137         0.29556
C         70.74324        30.66138         0.06968
C         72.04721        32.71762         0.23736
C         70.92134        33.51789        -0.26454
C         72.04153        35.68678         0.32378
C         70.83994        34.96413         0.02725
C         72.03340        37.00608         0.64691
C         70.74628        37.74181         0.87428
C         72.02837        39.93078         0.68963
C         70.81746        39.22560         0.57264
C         72.08172        41.31115         0.56613
C         70.90956        42.06942         0.32516
C         72.13370        44.26900         0.57184
C         70.92368        43.50709         0.29162
C         72.21518        45.60505         0.38545
C         71.05437        46.37301        -0.20349
C         72.14778        48.58368         0.49294
C         71.00336        47.86694         0.10981
C         72.08991        49.95710         0.69490
C         70.90768        50.68786         0.46115
C         72.01673        52.84605         1.03121
C         70.86702        52.12470         0.62995
C         71.99232        54.21756         1.20237
C         70.80582        54.95032         0.97993
C         71.83314        57.09362         1.79684
C         70.76462        56.40703         1.18772
C         71.80104        58.47685         1.93000
C         70.72563        59.23147         1.43493
C         71.95124        61.44749         1.18552
C         70.72852        60.71768         1.71178
C         71.97021        62.78618         1.19565
C         70.78128        63.55728         1.73136
C         71.97504        65.76119         1.48664
C         70.78687        65.04226         1.42193
C         72.00363        67.18423         1.43999
C         70.84566        67.92064         1.43678
C         72.13205        70.12709         1.58506
C         70.78929        69.42813         1.63555
C         72.22203        71.42546         1.23339
C         71.06433        72.16790         0.76119
O         45.57392        52.47665        -1.74068
O         68.32774        56.84927        -1.30606
O         69.66043        69.35537        -0.60784
O         54.83657        60.78752         1.92547
O         67.38635        44.97287        -1.93174
O         54.57992        46.71491         2.44266
O         67.38057        54.62211         1.34166
O         63.15377        54.69860        -2.89655
O         59.11703        52.50117        -2.90322
O         57.97377        40.87164         2.35338
O         56.49027        59.13099        -1.96209
O         70.48310        33.14812        -1.61477
O         65.74026        38.57561         1.31989
O         50.75388        56.40940         1.60305
O         63.79888        63.18547         1.53614
O         66.95730        47.89401        -2.26140
O         68.56362        67.76624         2.34709
O         49.17778        50.19517        -1.74283
O         53.17642        56.03249        -2.06246
O         46.14122        46.55326        -0.20120
O         70.73649        60.80144         3.16368
H         70.84128        61.75660         3.41031
O         63.32537        52.01856         0.61201
H         63.56249        52.85580         1.06276
O         49.05565        48.67939         1.94394
H         49.57517        48.09486         2.55264
O         70.86586        63.50592         3.20330
H         70.08032        63.97428         3.55849
O         67.75578        50.41176        -2.48945
H         67.44042        49.66292        -3.04544
O         48.75557        45.78606        -0.38862
H         47.82333        45.89612        -0.71221
O         56.54978        48.61986         2.06107
H         55.93237        48.08635         2.61895
O         64.01907        48.32332         0.95199
H         63.22157        48.20180         1.50989
O         46.97970        57.08762         1.99264
H         47.23491        56.19222         2.31632
O         70.48650        37.66809         2.33576
H         70.39887        36.71861         2.56585
O         66.20339        46.74496         1.07364
H         65.43247        47.31627         1.33304
O         69.01829        59.55311        -1.21980
H         68.97578        58.65942        -1.64286
O         44.94111        54.26155         1.40042
H         44.91656        55.19295         1.70934
O         48.70324        54.52576         2.02430
H         49.52464        54.91314         2.40504
O         49.96812        47.75480        -1.52534
H         49.73756        46.80056        -1.39518
O         64.81158        41.27849        -2.34624
H         63.97328        40.84136        -2.63122
O         52.80197        58.07343         2.33039
H         52.05505        57.51635         2.64697
O         57.06594        44.09930         2.66112
H         56.60682        43.52063         3.31852
O         69.65303        45.89985         1.67504
H         68.72868        45.72318         1.95059
O         60.77200        55.34151        -3.20706
H         61.63564        55.28622        -3.68196
O         50.16745        46.52048         2.94312
H         50.96898        46.11561         3.36803
O         58.71998        56.30891         0.82942
H         57.84073        55.99520         1.12996
O         63.57138        50.89222        -2.84598
H         63.68667        49.98019        -3.20945
O         71.13907        46.25263        -1.64696
H         71.95586        46.70201        -1.94670
O         58.35827        50.04144        -2.77853
H         58.74163        50.69861        -3.40767
O         46.35552        54.99828        -1.94397
H         46.22495        54.06616        -2.25381
O         62.08670        37.28277        -2.36872
H         62.15971        38.24074        -2.60677
O         55.65869        41.76704         3.45505
H         56.54021        41.31115         3.48375
O         52.63397        45.05742         3.42410
H         53.43429        45.63055         3.53542
O         70.25793        69.67592         2.96891
H         70.72416        69.09272         3.60248
O         50.89408        52.09210        -2.40704
H         50.16640        51.44039        -2.57857
O         62.14623        40.04099        -2.32659
H         61.32603        40.51234        -2.58870
O         67.17705        36.01355        -2.14763
H         68.10845        36.21793        -2.37982
O         56.70116        44.10549        -0.97869
H         57.24094        44.49095        -1.70051
O         62.52062        59.01440        -2.72349
H         61.79267        58.53685        -3.17727
O         52.42254        50.62770         1.57153
H         53.23172        50.28337         2.00820
O         54.86158        54.24117        -2.96367
H         54.38185        55.04855        -3.26354
O         65.59848        54.22928        -2.74490
H         64.86261        54.03117        -3.37028
O         64.99845        66.98129        -2.01680
H         64.18900        66.54486        -2.35846
O         64.40518        48.28398        -2.68770
H         65.23666        48.12350        -3.19274
H         37.50341        48.95452         0.61680
H         35.36506        50.12005         0.26570
H         37.45248        53.77014        -0.65741
H         35.33889        52.53989        -0.37815
H         39.15689        48.07644         0.90432
H         39.08980        54.71682        -0.82164
H         41.28448        46.93812         1.22734
H         41.18611        55.93839        -0.97314
H         45.10189        45.40418         2.77382
H         42.96923        46.44161         2.21639
H         44.88846        58.15902        -0.08145
H         42.87804        56.96012        -0.84293
H         46.79469        44.17482         2.58013
H         46.68597        59.17985        -0.12450
H         48.88526        42.87902         2.49558
H         48.80761        60.30492         0.08319
H         52.67918        40.68120         2.20581
H         50.55120        41.83364         1.86709
H         52.50490        62.26760         1.29107
H         50.41372        61.10565         0.97171
H         54.18434        39.68349         1.75018
H         54.23728        63.39900         1.00411
H         56.09347        38.44175         0.99904
H         56.10627        64.61410         0.03885
H         59.73865        36.17244         0.02360
H         57.79143        37.42363         0.82176
H         59.76262        66.80820        -0.54119
H         57.66627        65.58901        -0.57412
H         61.23404        35.15432        -0.67023
H         61.42059        67.78191        -0.28730
H         63.27940        33.93388        -0.31704
H         63.53897        68.96073        -0.32487
H         67.06190        31.79144        -0.70398
H         64.95330        32.97819        -0.56806
H         67.35481        71.04837        -0.43818
H         65.29055        69.79587        -0.76403
H         68.63849        30.78060        -0.20365
H         69.04479        72.09578         0.08484
H         72.84992        30.78444         0.63881
H         70.71778        29.57728         0.24958
H         72.95516        33.22793         0.58894
H         73.00615        35.16657         0.23851
H         72.98827        37.50369         0.86199
H         72.96122        39.39705         0.91328
H         73.05206        41.81192         0.67992
H         73.01957        43.73302         0.94184
H         73.17322        46.11221         0.57416
H         73.10095        48.06530         0.66391
H         73.00141        50.46796         1.02997
H         72.96148        52.31957         1.21679
H         72.91272        54.72891         1.51277
H         72.69888        56.54271         2.18751
H         72.63098        58.99429         2.43091
H         72.81414        60.87326         0.81489
H         72.84812        63.33685         0.82620
H         72.92943        65.23142         1.60856
H         72.98414        67.67886         1.47565
H         73.01815        69.60979         1.98227
H         73.18617        71.95109         1.29468
H         71.16647        73.25004         0.59788
