         430
 CSIRO Nanostructure Databank - Neutral Graphene Oxide Data Set
C         27.92301        27.59175        -0.56604
C         27.89984        28.96174        -0.17936
C         26.68607        29.69187        -0.18010
C         27.88345        31.71174         0.45200
C         26.68564        31.04206         0.11428
C         27.89676        33.22058         0.56475
C         26.63437        33.87162         1.09727
C         27.92795        35.93618         1.24601
C         26.68329        35.17215         1.43740
C         27.90116        37.38015         1.04560
C         26.70368        38.09038         1.02448
C         27.87884        40.20527         0.75146
C         26.69458        39.48614         0.86976
C         27.82396        41.71526         0.69052
C         26.70266        42.26207        -0.16170
C         27.95796        44.31634        -0.55897
C         26.77062        43.51642        -0.68153
C         28.01631        45.64765        -1.09902
C         30.34585        27.52280        -0.29351
C         29.10781        26.90198        -0.64130
C         30.33471        28.86039         0.13546
C         29.12174        29.61179         0.17504
C         30.34581        31.72246         0.79676
C         29.10024        31.01090         0.49439
C         30.36217        33.05134         1.10246
C         29.05996        33.74983         1.40144
C         30.37619        35.89262         0.72487
C         29.11140        35.25198         1.21235
C         30.37781        37.39127         0.90184
C         29.14598        38.08846         0.90753
C         30.36490        40.23023         0.71119
C         29.12636        39.51919         0.79922
C         30.35617        41.65442         0.48307
C         29.14384        42.35127         0.33643
C         30.37663        44.45791        -0.04795
C         29.14753        43.71439        -0.06195
C         30.29504        45.97536        -0.12103
C         29.12154        46.42234        -0.95771
C         32.82934        24.74124        -0.87207
C         31.63530        25.43662        -0.74730
C         32.85158        27.46127        -0.13097
C         31.60683        26.79488        -0.37968
C         32.87639        28.82530         0.26677
C         31.59727        29.48421         0.58158
C         32.89464        31.68582         0.89651
C         31.60661        30.94795         0.90475
C         32.88995        33.03366         1.17787
C         31.61897        33.75254         1.56228
C         32.85478        35.91740         1.08485
C         31.64806        35.21295         1.16708
C         32.83101        37.35926         0.97395
C         31.61207        38.08891         0.92160
C         32.81468        40.26369         0.63266
C         31.59996        39.53827         0.80998
C         32.81032        41.63029         0.30965
C         31.59297        42.35322         0.28731
C         32.85673        44.52352         0.26458
C         31.57244        43.78584         0.13707
C         32.83359        46.04382         0.17249
C         31.62405        46.57912        -0.62379
C         32.81828        48.75550        -0.43707
C         31.64949        48.09365        -0.50198
C         35.36770        23.27223        -1.10798
C         35.31657        24.63589        -0.70474
C         34.07148        25.36798        -0.63070
C         35.32493        27.42356        -0.03490
C         34.08486        26.74377        -0.25947
C         35.33379        28.82431         0.22238
C         34.09691        29.53722         0.40395
C         35.36504        31.65512         0.69795
C         34.11936        30.94438         0.68636
C         35.39184        33.05632         0.94491
C         34.17266        33.76309         1.47485
C         35.34677        35.93217         1.00487
C         34.12998        35.23965         1.14852
C         35.37113        37.36492         0.93856
C         34.09917        38.07941         1.11189
C         35.36909        40.23718         0.50825
C         34.10091        39.59596         0.89820
C         35.36889        41.60011         0.12460
C         34.06487        42.28911        -0.22031
C         35.36892        44.45908        -0.27999
C         34.13155        43.76440         0.11008
C         35.25974        45.83688        -0.89016
C         34.09606        46.66791        -0.40508
C         35.29765        48.76167        -0.94172
C         34.09873        48.04482        -0.59380
C         35.36564        50.16460        -0.93104
C         37.77886        23.11751        -0.73141
C         36.55452        22.55971        -1.16628
C         37.73844        24.48628        -0.21724
C         36.51978        25.29108        -0.34346
C         37.80809        27.40056        -0.02563
C         36.55492        26.68834        -0.08619
C         37.78831        28.81792         0.07439
C         36.58040        29.52609         0.25067
C         37.81855        31.67579         0.45931
C         36.58874        30.96114         0.43488
C         37.83072        33.08343         0.67013
C         36.59531        33.78107         0.86230
C         37.81686        35.92912         0.83020
C         36.59826        35.21761         0.93474
C         37.81991        37.36108         0.76324
C         36.57443        38.07772         0.80599
C         37.81422        40.19692         0.37130
C         36.58047        39.51544         0.60528
C         37.82003        41.58841         0.03303
C         36.57360        42.28874        -0.06771
C         37.78975        44.36959        -0.66542
C         36.57403        43.73000        -0.35662
C         37.77598        45.78144        -1.08113
C         36.56931        46.61241        -0.68332
C         37.82802        48.74773        -1.13842
C         36.53672        47.99705        -1.35730
C         37.82059        50.14095        -1.14230
C         36.56882        50.84161        -1.07369
C         40.25074        20.34669        -1.22980
C         39.06502        21.01394        -1.04099
C         40.27129        23.14540        -0.75486
C         39.02402        22.42249        -0.80905
C         40.30651        24.54628        -0.54349
C         39.10008        25.26097        -0.12624
C         40.29489        27.41402        -0.31126
C         39.05105        26.71736        -0.19800
C         40.32433        28.82900        -0.09711
C         39.03921        29.59340        -0.24640
C         40.26838        31.64971         0.50296
C         39.06792        30.98526         0.32318
C         40.29924        33.07515         0.64327
C         39.06321        33.79182         0.68996
C         40.29424        35.92221         0.71680
C         39.06381        35.21750         0.75847
C         40.28687        37.34980         0.64632
C         39.04529        38.06074         0.62879
C         40.27376        40.18715         0.30389
C         39.04861        39.48540         0.44104
C         40.27195        41.58454        -0.01054
C         39.05173        42.24785        -0.23359
C         40.30025        44.40841        -0.68828
C         39.04775        43.58357        -0.94411
C         40.30038        45.77061        -0.84109
C         39.08485        46.50405        -1.26572
C         40.33993        48.69910        -0.86646
C         39.12241        48.02816        -1.45711
C         40.29895        50.18934        -0.64276
C         39.07151        50.87666        -1.18191
C         40.36259        52.91352        -1.56973
C         39.14329        52.21745        -1.54261
C         42.71286        20.38853        -1.51621
C         41.49269        21.05208        -1.25410
C         42.72767        23.18453        -1.11154
C         41.49691        22.45932        -1.02946
C         42.71782        24.59712        -0.98211
C         41.51509        25.27852        -0.69902
C         42.75729        27.41864        -0.42081
C         41.51328        26.71096        -0.48964
C         42.76773        28.79205        -0.02782
C         41.52684        29.48482         0.12181
C         42.79943        31.63939         0.47237
C         41.53422        30.86629         0.72961
C         42.78566        33.05059         0.55166
C         41.53511        33.77394         0.65557
C         42.76713        35.91803         0.67920
C         41.54099        35.20327         0.68758
C         42.75789        37.35521         0.65131
C         41.51442        38.06357         0.57191
C         42.74493        40.19198         0.34997
C         41.51696        39.48278         0.41675
C         42.75051        41.61151         0.13384
C         41.52591        42.30041        -0.09480
C         42.76527        44.39467        -0.35419
C         41.54287        43.70189        -0.35611
C         42.78299        45.84049        -0.79032
C         41.51036        46.54727        -0.34862
C         42.78785        48.73047        -0.60062
C         41.51735        48.02726        -0.66646
C         42.80487        50.16835        -0.83848
C         41.59835        50.86611        -0.98916
C         42.83430        52.93903        -1.42486
C         41.59027        52.25468        -1.31494
C         43.91347        21.08852        -1.54216
C         45.22112        23.21296        -1.28078
C         43.95792        22.48120        -1.33705
C         45.23232        24.61153        -1.15725
C         43.95198        25.38766        -1.32942
C         45.20666        27.41262        -0.50845
C         43.97856        26.74890        -0.68798
C         45.21382        28.77736        -0.07493
C         44.01568        29.47855         0.13974
C         45.23580        31.64044         0.44635
C         44.01819        30.92336         0.38502
C         45.24808        33.06026         0.48160
C         44.01485        33.77259         0.51675
C         45.24597        35.89835         0.66323
C         44.02233        35.20515         0.61783
C         45.23276        37.35542         1.05820
C         43.96832        38.08062         0.67916
C         45.21601        40.21538         0.53923
C         43.97876        39.48942         0.53105
C         45.22382        41.62110         0.34998
C         43.98670        42.32355         0.14315
C         45.21228        44.48318         0.04706
C         43.99001        43.73405        -0.07261
C         45.19801        45.91155        -0.03844
C         44.01116        46.60135        -0.36736
C         45.31982        48.69692        -0.70762
C         43.99120        48.01616        -0.48477
C         45.28096        50.20131        -0.61552
C         44.04598        50.88499        -0.90051
C         44.02010        52.27570        -1.18751
C         47.66304        23.20010        -1.21726
C         46.46778        22.52146        -1.30122
C         47.70841        24.61297        -1.08928
C         46.46303        25.33424        -1.04914
C         47.69102        27.50142        -0.88734
C         46.44532        26.72917        -0.77723
C         47.75799        28.85578        -0.30767
C         46.51224        29.41658         0.21280
C         47.76924        31.65120         0.39255
C         46.50891        30.92075         0.53362
C         47.74071        33.07085         0.48308
C         46.49372        33.77151         0.52987
C         47.73302        35.89877         0.64555
C         46.49072        35.19678         0.60440
C         47.75701        37.38399         0.38881
C         46.46945        38.10834         0.67780
C         47.72358        40.22296         0.58663
C         46.46259        39.48779         0.61353
C         47.70440        41.65216         0.50481
C         46.45680        42.34494         0.34826
C         47.65475        44.48764         0.42460
C         46.44765        43.77515         0.26310
C         47.58601        45.93512         0.71554
C         46.38458        46.67941         0.29666
C         47.65375        48.82081         0.29054
C         46.45977        48.04626         0.05618
C         47.64425        50.18072         0.02431
C         46.46987        50.86879        -0.38084
C         50.12465        24.63761        -0.53207
C         48.96355        25.29542        -0.94445
C         50.33371        27.50903        -1.00466
C         49.00255        26.76150        -1.11914
C         50.23485        28.88162        -0.35565
C         48.97449        29.53467        -0.12675
C         50.21517        31.65297         0.37270
C         48.98048        30.93968         0.25800
C         50.18610        33.05128         0.59761
C         48.97242        33.78036         0.59094
C         50.20958        35.95011         0.79968
C         48.96382        35.21972         0.70152
C         50.22508        37.37100         0.86898
C         48.91272        38.07838         1.09148
C         50.17546        40.24347         0.76501
C         48.93826        39.54942         0.75690
C         50.17294        41.67196         0.70636
C         48.92208        42.36319         0.60751
C         50.10597        44.51805         0.66655
C         48.90741        43.80790         0.58415
C         50.08032        45.98127         0.50942
C         48.85068        46.69328         0.98022
C         50.17790        48.85126         0.77141
C         48.83041        48.22514         1.06792
C         51.33494        25.31765        -0.28367
C         52.70643        27.39310        -0.23027
C         51.46562        26.69124        -0.42573
C         52.69791        28.81629        -0.17142
C         51.44357        29.54256        -0.11652
C         52.69635        31.62610         0.24523
C         51.46930        30.94997         0.20964
C         52.75857        33.03337         0.66655
C         51.43283        33.77790         0.87223
C         52.68423        35.91384         0.86122
C         51.45898        35.24581         0.81515
C         52.71457        37.37976         1.21336
C         51.41767        38.09466         0.92134
C         52.64207        40.24429         0.73121
C         51.41838        39.52929         0.84678
C         52.62868        41.67156         0.65728
C         51.40658        42.37453         0.73184
C         52.62407        44.57342         0.40949
C         51.41735        43.86132         0.98485
C         52.61233        45.95223         0.16115
C         51.33653        46.72746         0.22794
C         51.31215        48.18622         0.50383
C         55.14532        27.38530        -0.10196
C         53.95235        26.70310        -0.14172
C         55.16719        28.81226        -0.09959
C         53.92838        29.52213        -0.08227
C         55.16462        31.66015        -0.05925
C         53.93938        30.95044         0.00903
C         55.14699        33.17000        -0.23247
C         53.94602        33.83245         0.40077
C         55.15881        35.96272         0.54759
C         53.92768        35.21542         0.63581
C         55.14184        37.40136         0.53721
C         53.93272        38.11718         0.72669
C         55.09896        40.25194         0.36151
C         53.89770        39.52804         0.62075
C         55.07413        41.69768         0.25834
C         53.86123        42.40093         0.43158
C         55.02338        44.51644        -0.11274
C         53.82943        43.82956         0.25599
C         54.98899        45.91282        -0.34810
C         53.80349        46.60999        -0.23393
C         56.37602        29.54223        -0.11371
C         56.36557        30.93363        -0.13768
C         56.40677        33.88732         0.17070
C         56.38410        35.21809         0.45671
C         56.32483        38.14435         0.26347
C         56.30284        39.52041         0.19637
C         56.26382        42.42792        -0.05240
C         56.24072        43.78591        -0.24002
O         48.26036        27.29580        -2.25957
O         38.44186        24.68575         1.04492
O         46.57948        29.90599         1.59681
O         50.41877        46.38661        -0.89219
O         31.53611        29.96039         1.99896
O         38.36320        45.92791        -2.43256
O         33.62672        44.09407         1.46285
O         48.14475        46.11786         2.11361
O         52.18671        33.24678         2.01050
O         34.13525        39.02424         2.24911
O         42.77246        45.85460        -2.25127
H         43.65725        45.57151        -2.56422
O         33.94911        42.23152        -1.67633
H         34.02901        41.29628        -1.95696
O         27.52020        42.15068         2.06798
H         27.57169        43.13059         2.08118
O         45.23445        37.34038         2.54364
H         44.42176        36.86917         2.82732
O         40.17603        50.32913         0.83691
H         40.19406        51.29021         1.03520
O         45.63264        48.42136        -2.13242
H         46.47760        48.87842        -2.33320
O         48.65831        37.98553         2.52235
H         49.37765        38.45843         2.99053
O         41.48997        46.48687         1.10664
H         40.83001        47.13366         1.43458
O         38.93892        29.82024        -1.71365
H         38.09957        30.30292        -1.87440
O         36.70910        46.85963         0.73628
H         36.48962        46.03172         1.21551
O         35.00330        45.62698        -2.31303
H         35.45826        46.36208        -2.80722
O         52.82568        37.40904         2.69910
H         52.23048        36.71113         3.04883
O         30.04096        46.47281         1.22075
H         30.91773        46.53295         1.68038
O         43.84474        25.65340        -2.78723
H         43.88792        24.78500        -3.24184
O         39.29454        48.23294        -2.91420
H         40.02081        47.64374        -3.21380
O         50.76490        27.78047        -2.37922
H         49.94039        27.93977        -2.89650
O         31.76654        46.18636        -2.00158
H         32.70396        46.31713        -2.27084
O         51.57420        44.00946         2.45548
H         50.80992        43.56164         2.87788
O         36.43474        47.80883        -2.81456
H         37.35688        47.67722        -3.15395
O         31.55808        33.72392         3.05918
H         31.61503        32.77713         3.32047
O         55.00558        33.37073        -1.69439
H         55.07245        34.33546        -1.86046
O         32.70635        46.53270         1.53932
H         33.22101        45.90470         2.10011
O         34.31571        33.71962         2.95002
H         33.45526        34.03389         3.32150
O         39.02879        43.25217        -2.37673
H         38.83624        44.10071        -2.84578
O         28.77368        33.47037         2.79616
H         29.57067        33.74498         3.30783
O         48.57599        48.58961         2.45198
H         48.10919        47.82149         2.86152
O         41.54194        30.62500         2.18908
H         42.39478        30.19345         2.41172
O         48.00430        37.53174        -1.04685
H         47.27917        37.08090        -1.52800
O         28.13122        33.71374        -0.79620
H         27.37960        33.42850        -1.35718
O         30.32612        35.66831        -0.75756
H         29.61540        35.00179        -0.93269
H         26.97682        27.09732        -0.82911
H         25.75041        29.18119        -0.44890
H         25.74082        31.60240         0.07218
H         25.70222        33.29842         1.20448
H         25.78615        35.68076         1.81862
H         25.74472        37.56644         1.13288
H         25.72868        40.00921         0.87268
H         25.77306        41.68346        -0.26160
H         25.91135        43.93750        -1.22563
H         27.13939        46.02471        -1.64748
H         29.08853        25.85514        -0.97014
H         29.13732        47.43789        -1.37972
H         32.78922        23.68078        -1.15235
H         30.70043        24.89379        -0.93660
H         32.81633        49.85130        -0.35498
H         30.69820        48.64459        -0.46223
H         34.44743        22.76767        -1.42990
H         34.45827        50.75838        -0.75336
H         36.53122        21.53148        -1.55270
H         36.56617        51.93947        -1.04203
H         40.25410        19.25841        -1.38673
H         38.12643        20.44285        -1.04136
H         40.37480        53.97527        -1.85342
H         38.23363        52.74983        -1.85589
H         42.70770        19.30366        -1.69403
H         42.83812        54.00689        -1.68619
H         44.83834        20.52968        -1.73767
H         44.96386        52.83313        -1.26075
H         48.60051        22.63005        -1.27056
H         46.48928        21.42805        -1.39564
H         48.54422        50.77929         0.21916
H         46.51042        51.96647        -0.41447
H         50.09913        23.55502        -0.34784
H         50.24466        49.93346         0.96054
H         52.18813        24.72292         0.07244
H         52.25618        48.74714         0.42889
H         56.09778        26.83608        -0.08624
H         53.96446        25.60465        -0.16674
H         55.91362        46.43225        -0.63775
H         53.78453        47.68775        -0.44648
H         57.33258        29.00099        -0.14351
H         57.32570        31.46177        -0.21281
H         57.37452        33.37174         0.10334
H         57.33715        35.73458         0.64146
H         57.27707        37.62200         0.10191
H         57.24666        40.04407        -0.00225
H         57.21865        41.89917        -0.16685
H         57.16260        44.32635        -0.49896
