         344
 CSIRO Nanostructure Databank - Neutral Graphene Oxide Data Set
C          1.13791         2.12609         0.10529
C          1.14299         3.52552         0.15205
C          2.30636         1.41883        -0.13055
C          2.33799         4.25567        -0.06721
C          1.20626         6.47126         0.23836
C          1.26187         7.84270         0.50841
C          2.36604         5.71727         0.04417
C          2.48608         8.53384         0.59838
C          1.43616        10.67728         1.35846
C          1.51869        12.06157         1.74827
C          2.52946         9.94330         0.96691
C          2.67083        12.79125         1.59630
C          1.60086        15.02326         2.00981
C          1.64444        16.40376         2.05482
C          2.79187        14.23822         1.80185
C          2.87410        17.09752         2.01560
C          2.94224        18.50531         1.96587
C          3.54067         2.10867        -0.34584
C          3.52473         3.54527        -0.32728
C          4.72859         1.38604        -0.54454
C          4.79108         4.28004        -0.67787
C          3.64080         6.40291         0.06301
C          3.69608         7.82579         0.33559
C          4.81532         5.69142        -0.16744
C          4.95078         8.52203         0.18411
C          3.88265        10.58980         1.14047
C          3.82690        12.09323         0.98215
C          5.00603         9.94702         0.37136
C          5.10966        12.81782         0.80340
C          4.02812        14.87434         1.73414
C          4.14154        16.30693         2.17209
C          5.31509        14.08611         1.59970
C          5.37885        17.04018         1.72461
C          4.16364        19.15444         1.89600
C          5.38466        18.41547         1.76430
C          6.04470         2.06726        -0.80860
C          6.03133         3.49280        -0.21692
C          7.25314         1.28271        -0.26930
C          7.30866         4.22510        -0.57074
C          6.15122         6.32396         0.10096
C          6.13751         7.81072        -0.12169
C          7.29896         5.60005        -0.56653
C          7.33345         8.49025        -0.45569
C          6.16816        10.66777         0.09497
C          6.31380        12.05975         0.39425
C          7.29476         9.96189        -0.54113
C          7.49601        12.78069         0.17280
C          6.51834        14.86941         1.12823
C          6.67889        16.26822         1.69022
C          7.56276        14.20758         0.50368
C          7.78689        17.04010         1.01597
C          6.69557        19.16268         1.82106
C          7.80182        18.44982         1.09005
C          8.54244         2.05453        -0.45174
C          8.53190         3.46220        -0.69146
C          9.74888         1.37949        -0.34255
C          9.77431         4.14238        -0.85322
C          8.48284         6.36118        -0.98513
C          8.53221         7.82028        -0.76485
C          9.78716         5.59270        -1.14221
C          9.78456         8.51187        -0.90002
C          8.59363        10.70862        -0.74173
C          8.67175        12.12227        -0.32259
C          9.84417         9.93435        -0.83098
C          9.87720        12.80413        -0.48632
C          8.79100        14.91238         0.16921
C          8.83845        16.36376         0.34994
C          9.89600        14.22672        -0.31325
C          9.92940        17.09681        -0.14672
C          8.87359        19.17759         0.57924
C          9.97344        18.51223        -0.02364
C         10.99751         2.05973        -0.44536
C         10.98552         3.46023        -0.71888
C         12.22984         1.38581        -0.25809
C         12.28811         4.16015        -1.02341
C         11.04771         6.34876        -0.96536
C         11.01809         7.78305        -0.94595
C         12.24296         5.65894        -0.81315
C         12.25513         8.49330        -0.95952
C         11.06445        10.63119        -0.91698
C         11.09335        12.09227        -0.88312
C         12.28233         9.91391        -1.04977
C         12.25155        12.76135        -1.20629
C         11.19271        14.95926        -0.55071
C         10.96137        16.41033        -1.00896
C         12.18308        14.24096        -1.48765
C         12.29325        17.12080        -1.02813
C         11.12615        19.21856        -0.45405
C         12.30946        18.53265        -0.85151
C         13.45003         2.10985        -0.12554
C         13.44533         3.50376        -0.32723
C         14.68930         1.42407         0.13556
C         14.59296         4.30453         0.06042
C         13.47533         6.38086        -0.68585
C         13.48903         7.79047        -0.86747
C         14.67983         5.71968        -0.34647
C         14.73538         8.48437        -0.96414
C         13.52532        10.58894        -1.32572
C         13.39928        12.01095        -1.85379
C         14.72049         9.89132        -1.30685
C         14.72394        12.79139        -1.85866
C         13.51238        14.96483        -1.42445
C         13.49540        16.40153        -1.28316
C         14.73864        14.26161        -1.56776
C         14.71242        17.12483        -1.37520
C         13.53199        19.23328        -0.97748
C         14.72895        18.53655        -1.21953
C         15.89504         2.10016         0.24693
C         15.89188         3.56473         0.38155
C         17.16732         1.45154         0.22256
C         17.15953         4.30588         0.28111
C         15.90559         6.41497        -0.33484
C         15.93792         7.77418        -0.75408
C         17.14693         5.71633         0.03266
C         17.28403         8.39596        -1.08871
C         16.01570        10.50315        -1.80766
C         16.02599        12.03306        -1.83465
C         17.25916         9.91059        -1.17454
C         17.27132        12.76313        -1.48097
C         15.96209        14.93561        -1.57754
C         15.97776        16.42703        -1.79292
C         17.28744        14.23808        -1.81207
C         17.21882        17.10043        -1.25646
C         15.98125        19.23562        -1.22801
C         17.19053        18.55007        -1.16127
C         18.36460         2.13047         0.42082
C         18.35501         3.60161         0.52744
C         19.59868         1.37326         0.23359
C         19.54226         4.39003         0.68733
C         18.34797         6.43702         0.06209
C         18.32862         7.93840        -0.07205
C         19.56302         5.77907         0.37646
C         19.68258         8.53891        -0.34282
C         18.40981        10.62748        -1.03119
C         18.43158        12.08942        -1.15481
C         19.73540         9.89233        -1.00509
C         19.67421        12.81192        -0.90425
C         18.45828        14.96580        -1.18279
C         18.38974        16.38803        -1.04161
C         19.64701        14.25902        -0.89623
C         19.58170        17.12975        -0.46514
C         18.41827        19.26449        -1.04585
C         19.62473        18.59220        -0.85460
C         20.78237         1.72195         0.84527
C         20.74035         3.85489         1.21923
C         22.13733         1.38356         0.53298
C         21.98998         4.42085         1.01807
C         20.82065         6.46719         0.34444
C         20.84525         7.87733        -0.03814
C         22.01771         5.75335         0.52739
C         22.12726         8.58155        -0.07761
C         20.92129        10.70777        -0.55373
C         20.86674        12.11592        -0.60356
C         22.13350        10.01488        -0.28927
C         22.10009        12.87309        -0.15036
C         20.88299        14.99054        -0.72756
C         20.87976        16.41712        -0.72406
C         22.13055        14.29973        -0.63481
C         22.06260        17.13429        -0.83349
C         20.84751        19.27512        -0.87989
C         22.08502        18.58112        -0.83229
C         23.24392         2.16333         0.88263
C         23.19994         3.61104         1.46409
C         24.52215         1.55758         0.72381
C         24.50350         4.31739         1.17443
C         23.30752         6.42389         0.28323
C         23.31131         7.89998         0.17638
C         24.57487         5.68226         0.64909
C         24.59122         8.56831         0.08628
C         23.38639        10.70334        -0.32256
C         23.39965        12.14600        -0.41489
C         24.60808         9.98478        -0.25134
C         24.58274        12.84263        -0.53846
C         23.34309        14.96566        -0.81343
C         23.31810        16.41072        -1.09317
C         24.61515        14.29012        -0.66618
C         24.61792        17.18309        -1.12710
C         23.30225        19.27292        -0.75450
C         24.55388        18.60172        -0.69675
C         25.74664         2.16217         0.99958
C         25.75753         3.57354         1.56588
C         26.96111         1.43905         0.90007
C         27.04597         4.32738         1.21657
C         25.75702         6.57268         1.06010
C         25.77575         7.88503         0.30623
C         27.07517         5.80658         1.00676
C         27.05340         8.49098        -0.21614
C         25.84797        10.67219        -0.32510
C         25.87195        12.10516        -0.78490
C         27.06676         9.99619        -0.14798
C         27.09145        12.85318        -0.31387
C         25.83357        14.97625        -0.66041
C         25.95196        16.43347        -1.09334
C         27.07533        14.27796        -0.35268
C         27.03144        17.15776        -0.32888
C         25.67592        19.21831        -0.17034
C         26.90637        18.50171         0.04978
C         28.21097         2.07689         0.84917
C         28.19582         3.54260         0.66446
C         29.45312         1.41066         0.74558
C         29.49169         4.27513         0.43349
C         28.31575         6.46633         0.51139
C         28.32238         7.84180         0.25711
C         29.53382         5.74632         0.54471
C         29.54601         8.55658         0.24254
C         28.29476        10.69681        -0.04616
C         28.28232        12.14580        -0.05819
C         29.53086         9.99606         0.15428
C         29.48808        12.86158         0.22243
C         28.26013        14.98339        -0.05444
C         28.36841        16.47721        -0.27555
C         29.45426        14.28811         0.28214
C         29.35400        17.12873         0.65760
C         27.98046        19.16624         0.70144
C         29.17628        18.48464         1.04723
C         30.66510         2.10118         0.62804
C         30.73861         3.50407         0.53310
C         31.95319         4.23741         0.54938
C         30.77680         6.41108         0.48199
C         30.78068         7.85410         0.42684
C         31.97391         5.62063         0.49847
C         31.97586         8.60757         0.50944
C         30.74384        10.71383         0.33473
C         30.72076        12.16636         0.41179
C         31.95211         9.99034         0.48417
C         31.87682        12.91454         0.69107
C         30.62776        15.00593         0.69109
C         30.51658        16.42878         1.02514
C         31.82184        14.30011         0.86183
C         31.50490        17.09159         1.78642
C         30.19385        19.12657         1.80343
C         31.34229        18.43077         2.15763
O         15.46402        12.53148        -3.11867
O         27.42629         5.20628         2.33609
O         20.65285         2.64446         1.90283
O          9.00538         5.97452        -2.31423
O          7.66722        10.48358        -1.86595
O          4.13343        12.74933        -0.29603
O         23.92346        16.88111        -2.37869
O         28.58933         3.89530        -0.69761
O         24.15310         5.80229        -0.77012
O         15.02866         4.06734         1.45399
O         11.72575        14.31397        -2.87583
H         12.11170        13.53107        -3.34894
O          4.35379        16.19993         3.68543
H          3.65359        15.59571         4.01962
O         27.04375         8.18335        -1.67023
H         26.19717         8.52245        -2.03419
O          5.66432        13.60802         2.94878
H          6.25911        14.28241         3.35217
O          7.08955         0.99633         1.13488
H          6.27208         0.46447         1.23677
O         21.97251        12.95269         1.31567
H         22.75439        13.43773         1.65464
O          6.25792         2.11814        -2.23964
H          5.67599         2.83025        -2.60166
O         26.41695        16.35893        -2.48909
H         25.59862        16.30140        -3.04099
O         23.07596         3.47587         2.90830
H         23.96324         3.20490         3.25308
O         19.98910         9.62956        -2.43854
H         20.73466         8.99422        -2.49536
O         17.52385        14.31424        -3.28018
H         16.82700        13.73575        -3.68058
O         25.99810        12.02712        -2.26098
H         26.86903        11.61789        -2.45424
O         28.95952        16.62422        -1.62199
H         28.22774        16.45969        -2.26791
O         10.38813        16.48114        -2.34032
H         10.88172        15.85256        -2.92158
O         16.04884        16.59972        -3.26236
H         16.74667        15.96584        -3.57363
O         16.11130        10.05046        -3.20459
H         16.81040        10.58573        -3.63854
O          7.05964        16.12063         3.12701
H          6.21765        16.21831         3.64446
O         17.88355         8.47583         1.21434
H         18.49897         8.15378         1.90623
O         12.51442         3.97646        -2.47236
H         11.73074         4.34063        -2.93823
O          6.38385         6.14205         1.55313
H          6.23928         5.17526         1.73235
O          7.06772        19.24873         3.21593
H          7.22202        18.32807         3.52641
O         17.66095         7.86769        -2.38293
H         17.10378         8.33675        -3.04853
O          5.92481         3.41165         1.22936
H          6.50606         2.66545         1.52989
O         25.77328         3.37273         3.02196
H         26.24478         4.15009         3.40489
O          4.23361        10.40504         2.55685
H          4.28282         9.44036         2.72737
O          4.85513         4.38592        -2.14808
H          4.05034         4.86040        -2.44691
O         12.99607        11.88790        -3.25910
H         13.82476        11.71326        -3.76699
O         19.40284        17.11161         0.99431
H         18.57603        17.60118         1.19131
O         11.87370        15.01264         0.73479
H         11.25207        15.39198         1.39174
O         25.49727         6.93004         2.44841
H         26.14296         6.43436         3.00409
H          0.19559         1.58536         0.27245
H          0.20330         4.05029         0.36908
H          2.29710         0.31948        -0.14763
H          0.21955         5.98942         0.20787
H          0.31842         8.38053         0.67185
H          0.43637        10.21917         1.37220
H          0.60034        12.53069         2.12902
H          0.62597        14.51910         2.04013
H          0.70730        16.97924         2.09045
H          2.00800        19.08650         1.97584
H          4.67355         0.28921        -0.63371
H          4.20850        20.25266         1.90031
H          7.32624         0.30623        -0.82427
H          6.58056        20.20963         1.44608
H          9.74877         0.29773        -0.14228
H          8.88301        20.27408         0.66576
H         12.22946         0.29806        -0.09483
H         11.15467        20.31357        -0.35044
H         14.68496         0.32388         0.12444
H         13.55380        20.32323        -0.83390
H         17.19313         0.36295         0.06468
H         15.97656        20.33323        -1.16000
H         19.56942         0.52172        -0.46325
H         18.41308        20.35784        -1.17119
H         22.32433         0.45845        -0.03749
H         20.85189        20.36756        -1.01381
H         24.54042         0.50467         0.39574
H         23.28438        20.36307        -0.60777
H         26.91249         0.34949         0.74690
H         25.61105        20.26370         0.16443
H         29.46944         0.31323         0.81465
H         27.86194        20.22297         0.98218
H         31.60351         1.52683         0.63458
H         32.90388         3.68549         0.59247
H         32.94916         6.12608         0.48008
H         32.94085         8.09690         0.62932
H         32.90368        10.52814         0.58753
H         32.84499        12.41446         0.82466
H         32.74357        14.83202         1.13451
H         32.41185        16.55774         2.10141
H         30.06066        20.17483         2.10667
H         32.12668        18.92931         2.74420
