         261
 CSIRO Nanostructure Databank - Neutral Graphene Oxide Data Set
C        -10.98925         0.69662        -0.63180
C         -9.81645         1.44681        -1.13092
C         -8.53474         0.65994        -1.37213
C         -7.30836         1.41102        -0.95000
C         -6.08629         0.65883        -0.53291
C         -4.79415         1.41466        -0.39199
C         -3.63185         0.70764         0.22754
C         -2.58253         1.50853         0.94958
C         -1.36501         0.82007         1.48701
C         -0.08921         1.58977         1.19945
C          1.16593         0.85880         0.84315
C          2.50566         1.57340         0.86565
C          3.78965         0.79302         0.97924
C          5.07023         1.58426         0.76538
C          6.31693         0.83853         0.38573
C          7.67842         1.43561         0.69788
C          8.87567         0.54193         0.42328
C         10.08997         1.71626        -1.03355
C         10.65391         0.79360        -2.02105
C         -9.71149         2.90001        -0.85002
C         -8.56188         3.61976        -1.00397
C         -7.25343         2.89111        -1.38859
C         -6.02493         3.64234        -0.81022
C         -4.97300         2.87666        -0.06444
C         -3.83773         3.65703         0.52154
C         -2.50643         2.96041         0.53831
C         -1.27104         3.75755         0.77447
C         -0.06563         3.08596         1.38620
C          1.23761         3.81127         1.34201
C          2.53155         3.04241         1.15634
C          3.83132         3.73568         1.48559
C          5.15471         2.98710         1.34444
C          6.46219         3.74796         1.18497
C          7.75643         2.95259         0.78533
C          8.97762         3.66201         0.09691
C          9.46456         2.91229        -1.16226
C         -8.52530         5.08000        -1.10816
C         -7.36952         5.79231        -1.03761
C         -6.09990         5.12271        -0.65150
C         -5.16491         5.89751         0.25173
C         -3.92552         5.17111         0.70733
C         -2.66140         5.95797         0.99511
C         -1.33908         5.26476         0.74553
C         -0.03602         6.00597         0.76121
C          1.29319         5.20404         0.69189
C          2.50644         5.97318         1.19238
C          3.82170         5.21879         1.28965
C          5.02104         5.82994         0.62817
C          6.42026         5.25196         0.89941
C          7.55756         5.76300         0.05459
C          8.70246         5.11535        -0.21555
C         -7.15652         7.20995        -1.50887
C         -6.43423         8.08518        -0.46277
C         -5.20007         7.41745         0.17773
C         -3.93278         8.19163         0.45582
C         -2.66047         7.46282         0.85869
C         -1.33255         8.22861         0.79953
C         -0.02702         7.49003         1.04250
C          1.26479         8.23592         0.86070
C          2.53409         7.44942         1.00493
C          3.83562         8.14792         0.75083
C          4.98600         7.29330         0.29355
C          6.33119         7.92360        -0.07198
C          7.42228         7.12257         0.70581
C         -6.08763         9.43744        -1.05230
C         -4.94755        10.10768        -0.84866
C         -3.76542         9.63502        -0.02339
C         -2.46530         9.79557        -0.84131
C         -1.22115         9.44865        -0.04570
C         -0.03843        10.05348        -0.34845
C          1.27271         9.64248         0.21147
C          2.55905        10.09491        -0.30259
C          3.82388         9.59933         0.21125
C          5.14828        10.13605        -0.21437
C          6.29160         9.43591        -0.08241
C        -10.98213        -0.63831        -0.43457
C         -9.84143        -1.50646        -0.80245
C         -8.56287        -0.85132        -1.25466
C         -7.24996        -1.60467        -1.11437
C         -6.00987        -0.83678        -0.73198
C         -4.80245        -1.56159        -0.14814
C         -3.75723        -0.74336         0.58693
C         -2.63665        -1.42832         1.32108
C         -1.33696        -0.71160         1.77311
C         -0.12531        -1.42193         1.17937
C          1.10834        -0.65034         0.79810
C          2.41136        -1.36071         0.49093
C          3.73540        -0.68022         0.72216
C          4.92558        -1.37980         0.10841
C          6.20013        -0.61707        -0.08272
C          7.44557        -1.40047        -0.43575
C          8.78707        -0.79179        -0.20191
C          9.86613        -1.41915        -1.03077
C         10.66013        -0.56914        -1.92146
C         -9.78726        -2.91376        -0.33349
C         -8.69256        -3.68857        -0.47035
C         -7.33380        -3.16534        -0.93041
C         -6.27105        -3.70110         0.09443
C         -4.92725        -3.01782         0.18880
C         -3.88656        -3.70111         1.04892
C         -2.63607        -2.95631         1.39475
C         -1.31750        -3.71357         1.38816
C         -0.04349        -2.92287         1.36649
C          1.26325        -3.63020         1.00838
C          2.40640        -2.85460         0.42243
C          3.65344        -3.61535         0.02536
C          4.96445        -2.89477         0.13590
C          6.23317        -3.64097        -0.13193
C          7.46353        -2.88529        -0.50351
C          8.80759        -3.60573        -0.36461
C          9.85029        -2.78337        -1.12534
C         -8.82692        -5.20127        -0.35158
C         -7.52752        -5.95334        -0.12047
C         -6.34061        -5.18002         0.34159
C         -5.00918        -5.90995         0.26808
C         -3.83984        -5.21043         0.94831
C         -2.52307        -5.92266         0.90907
C         -1.30125        -5.05196         0.61305
C          0.02628        -5.85740         0.61802
C          1.30772        -5.13020         0.92958
C          2.56147        -5.87498         0.50581
C          3.64334        -5.09551        -0.17659
C          4.91873        -5.79950        -0.59691
C          6.21532        -5.05500        -0.64293
C          7.51637        -5.76527        -0.82105
C          8.68115        -5.07099        -0.79313
C         -7.48585        -7.30617        -0.20174
C         -6.33721        -8.10706         0.30457
C         -5.08326        -7.37060         0.67683
C         -3.77835        -8.12058         0.74417
C         -2.52679        -7.34842         0.42842
C         -1.24587        -8.09830         0.21250
C          0.06017        -7.34570         0.37105
C          1.30569        -8.19894         0.83743
C          2.60940        -7.36916         0.55728
C          3.82758        -8.08875         0.00685
C          4.89435        -7.29953        -0.70554
C          6.14254        -7.99929        -1.14789
C          7.48029        -7.23750        -1.28631
C         -6.20153        -9.54647        -0.01821
C         -5.03569       -10.22435         0.07140
C         -3.75812        -9.60014         0.48860
C         -2.44894       -10.25286         0.20421
C         -1.26606        -9.58994         0.22495
C          0.03511       -10.38181         0.20755
C          1.31920        -9.56521         0.13784
C          2.45591       -10.19188        -0.24905
C          3.79935        -9.56121        -0.23876
C          5.00258       -10.18636        -0.86266
C          6.14320        -9.49260        -1.06978
O          6.88122         6.36485         1.88014
O         -3.26060        -5.79762         2.14677
O          8.01723         2.11475         1.94493
O          1.60836        -4.45485         2.17040
O          2.61407         2.53952        -0.21789
O         -6.28483        -1.20384        -2.11274
O         -7.29759         2.98832        -2.75999
O         -0.75860         5.77594        -0.50144
O          0.30344         1.38576        -0.20134
O          2.19604        -2.02327        -0.77433
O          1.11404        -8.39016         2.18225
O          7.34532        -2.09420        -1.71600
O          0.28812        -6.45254        -0.72725
O          3.90611         4.63382         2.61568
O         -6.67293        -4.20287         1.38984
O         -9.45617        -1.42802        -2.22949
O          5.57958         1.65359        -0.59845
O         -3.62199        -3.32034         2.41714
O         -3.67447         1.00301        -1.20522
O          3.86599        -0.16103         2.08302
O         -3.79956        -0.90153         2.03298
O         -7.04923         1.13482         0.46869
O          4.27250        -8.99636         1.05642
O          9.00389        -0.61431         1.25834
O          4.62270         6.27610        -0.70795
O         -0.73938         8.12471         2.12675
O          3.07166        -6.58175         1.68174
O         -6.01875        -7.72133         1.70687
O         -2.02433        -7.54695        -0.92119
O          2.39883         6.82260         2.35034
O         10.12264         1.19967         0.28576
O         -5.03036         5.45139         1.61710
O         -5.40197         4.52826        -1.80180
O         -4.95998         8.05434         1.47671
O          6.00129         3.26887         2.47391
O          0.08912        -1.05585        -0.19027
O         -2.35164         1.41094         2.38210
O          0.49824         3.67667         2.58511
O          5.40280        -5.20134        -1.84041
O          4.00258         9.23849         1.65117
O         -6.96457        -3.80839        -2.09713
O         -2.76841         6.79427         2.15618
O         -1.60908         3.23897        -0.56081
O          1.29870         9.42609         1.66119
O          5.77881        -3.43451         1.23829
O         -0.57229        -3.49481         2.59669
O          5.23507        -0.77006        -1.16832
O         -9.29107         1.14852        -2.48094
O         -4.84659         3.03080         1.37458
O         -3.71781        -9.03337         1.86239
O         -4.30873        -2.58445        -1.05766
O          5.08561        -7.64973        -2.11417
O          3.26522        -4.21908        -1.26038
O         -4.69495        -5.92854        -1.15538
H         -5.14385        -5.18224        -1.61840
O         -0.00295       -11.35333        -0.84145
H         -0.13698       -10.88771        -1.69232
O         -1.24276        -0.85328         3.18891
H         -2.09714        -0.56098         3.57730
O          6.61429         7.65033        -1.47174
H          5.99401         6.94118        -1.76730
O         -3.63362        10.47808         1.13409
H         -4.25921        10.14862         1.81552
O          8.49964        -7.97209        -0.60519
H          8.29861        -7.98557         0.35308
O         -2.50728         8.88670        -1.94917
H         -3.29093         9.09823        -2.49920
O          1.60818         5.00134        -0.69420
H          0.79895         4.68707        -1.16089
O         10.04292         3.73025         1.05272
H         10.14741         2.83500         1.44997
O         -9.74703        -5.53335         0.69477
H         -9.29372        -5.40188         1.55349
O         -6.31038         7.15158        -2.66531
H         -6.43622         6.28817        -3.11475
O          9.12946        -3.59391         1.04375
H         10.04949        -3.90662         1.16251
O         -7.39731         8.29460         0.58808
H         -6.89674         8.54532         1.39757
O         -1.49355        -4.59714        -0.74496
H         -1.35332        -5.36909        -1.34448
H         11.21837        -1.11742        -2.69817
H         11.16570         1.24267        -2.88691
H          9.36799         3.39520        -2.14500
H          9.58936         5.70628        -0.49212
H          8.34546         7.68966         0.95481
H          7.24826         9.93650        -0.29520
H          5.19454        11.21500        -0.42836
H          2.58688        10.70316        -1.21936
H         -0.03557        10.86920        -1.08808
H         -2.39037        10.85289        -1.21686
H         -4.84188        11.11807        -1.27701
H         -6.88490         9.91561        -1.64314
H         -8.13873         7.69528        -1.76613
H         -9.46598         5.59455        -1.36387
H        -10.63643         3.42566        -0.55984
H        -11.86428         1.28555        -0.31675
H        -11.86129        -1.12507         0.01355
H        -10.73270        -3.38440        -0.01763
H         -9.28486        -5.56745        -1.30917
H         -8.37942        -7.85224        -0.54303
H         -7.09830       -10.06653        -0.38915
H         -5.00491       -11.28327        -0.22812
H         -2.43792       -11.35173         0.12562
H          0.08004       -10.96013         1.17041
H          2.37658       -11.22172        -0.63534
H          5.00418       -11.28286        -0.95992
H          7.06006       -10.01415        -1.38209
H          7.75732        -7.24690        -2.37270
H          9.61892        -5.61518        -0.99484
H         10.56987        -3.29939        -1.78118
