         276
 CSIRO Nanostructure Databank - Neutral Graphene Oxide Data Set
C        -10.69144         0.68497         1.73449
C         -9.55029         1.46203         1.25993
C         -8.47562         0.76330         0.63129
C         -7.17457         1.49879         0.41115
C         -6.34559         0.86272        -0.71520
C         -4.98627         1.56407        -0.93577
C         -3.71997         0.79491        -1.16846
C         -2.39834         1.52786        -1.22999
C         -1.13237         0.78039        -0.78977
C          0.07657         1.45924        -1.43638
C          1.35870         0.70646        -1.61965
C          2.64395         1.47502        -1.81641
C          3.91646         0.73749        -1.46572
C          5.04593         1.51149        -0.79600
C          6.04833         0.69490        -0.05516
C          7.24390         1.29869         0.61821
C          7.63876         0.66915         1.94130
C          8.55337         1.45135         2.84669
C          9.62778         0.64950         3.48268
C         -9.47189         2.83207         1.52434
C         -8.35328         3.64056         1.12276
C         -7.42819         2.99152         0.09741
C         -6.11212         3.74422        -0.12323
C         -4.80113         2.96416        -0.32789
C         -3.65383         3.78639        -0.93348
C         -2.38250         3.02337        -1.22544
C         -1.07326         3.68211        -0.80029
C          0.08845         2.98461        -1.50889
C          1.34641         3.75289        -1.85376
C          2.64841         2.98537        -1.87478
C          3.90700         3.71681        -1.41754
C          4.65755         2.93228        -0.31618
C          5.82125         3.67972         0.34480
C          6.31636         3.24524         1.70497
C          7.69672         3.72369         2.08649
C          8.69605         2.90496         2.61845
C         -8.27442         4.97216         1.44487
C         -6.98043         5.74331         1.37712
C         -5.95349         5.10877         0.44757
C         -4.55946         5.70361         0.57787
C         -3.50392         5.19194        -0.39084
C         -2.18103         5.80414        -0.20592
C         -1.07699         5.22530        -1.05313
C          0.34151         5.80033        -0.76495
C          1.37537         5.31232        -1.83913
C          2.70118         6.01678        -1.55489
C          3.97054         5.22534        -1.42436
C          5.12574         5.92960        -0.74252
C          6.05304         5.15271         0.14346
C          6.91783         5.88414         1.12575
C          7.87546         5.11109         1.86285
C         -7.04492         7.23690         1.12057
C         -5.92283         7.92281         0.77208
C         -4.66472         7.21311         0.41892
C         -3.37555         7.94875         0.33847
C         -2.07464         7.14824         0.48012
C         -0.89192         7.97214        -0.05185
C          0.31250         7.32163        -0.63589
C          1.32787         8.15042        -1.44341
C          2.65780         7.37457        -1.39101
C          3.90917         8.15165        -1.16839
C          5.09401         7.40854        -0.60719
C          5.71379         8.03653         0.63601
C          6.86625         7.25718         1.20310
C         -5.86054         9.37640         0.60001
C         -4.69329        10.05194         0.55811
C         -3.35798         9.39064         0.86812
C         -2.12166        10.11614         0.42035
C         -1.14985         9.46793        -0.50760
C          0.17324        10.17855        -0.50743
C          1.37272         9.56059        -0.85673
C          2.57379        10.26055        -0.69092
C          3.87440         9.63168        -0.88289
C          5.07584        10.24970        -0.24652
C          5.97504         9.50985         0.41729
C        -10.80330        -0.63665         1.50424
C         -9.81683        -1.39585         0.65650
C         -8.51023        -0.63822         0.46363
C         -7.40058        -1.35157        -0.00699
C         -6.22803        -0.66132        -0.58250
C         -4.92685        -1.41272        -0.76040
C         -3.62812        -0.62758        -0.63378
C         -2.37207        -1.39449        -1.05040
C         -1.19058        -0.71925        -1.10619
C          0.11273        -1.45360        -1.03474
C          1.41558        -0.72599        -1.15462
C          2.69827        -1.48372        -1.32430
C          3.88967        -0.72849        -1.33494
C          5.18979        -1.39800        -1.08657
C          6.12780        -0.65795        -0.19893
C          7.21176        -1.39064         0.52496
C          7.62446        -0.85912         1.89431
C          8.91178        -1.48074         2.39924
C          9.78835        -0.67730         3.23933
C         -9.56024        -2.79563         1.17176
C         -8.48835        -3.50934         0.77131
C         -7.44188        -2.82618        -0.04545
C         -6.18300        -3.58579        -0.39617
C         -4.84647        -2.86730        -0.30029
C         -3.74653        -3.61279        -1.10534
C         -2.40790        -2.89006        -0.86262
C         -1.12942        -3.66301        -0.91830
C          0.14231        -2.93712        -1.37843
C          1.43509        -3.61937        -0.85028
C          2.70315        -2.89005        -1.30015
C          3.98551        -3.63365        -1.48641
C          5.28860        -2.88966        -1.21103
C          6.43226        -3.62352        -0.53050
C          7.36932        -2.86286         0.36525
C          8.17762        -3.60727         1.37690
C          9.11309        -2.81348         2.17250
C         -8.29233        -4.93822         1.29340
C         -6.80417        -5.38564         1.26284
C         -6.19750        -5.10055        -0.13760
C         -4.82939        -5.76432        -0.33777
C         -3.71758        -5.11389        -0.75939
C         -2.47264        -5.84833        -1.30863
C         -1.16719        -5.13351        -1.01292
C          0.09683        -5.83154        -0.81454
C          1.37762        -5.10753        -1.18239
C          2.64765        -5.88418        -1.34529
C          3.97797        -5.14323        -1.45015
C          5.22954        -5.87789        -1.01324
C          6.35537        -5.10312        -0.36906
C          6.95548        -5.75806         0.91766
C          8.10475        -4.95849         1.48890
C         -6.61441        -6.81764         1.67741
C         -5.68888        -7.64086         1.11974
C         -4.97709        -7.29210        -0.18553
C         -3.65717        -8.04851        -0.39811
C         -2.44995        -7.34982        -0.97577
C         -1.13369        -8.08824        -0.95616
C          0.13399        -7.33210        -0.79006
C          1.39273        -8.10711        -1.17300
C          2.65409        -7.30421        -0.75991
C          3.91288        -8.08937        -1.07790
C          5.19007        -7.35365        -0.81706
C          6.07013        -8.03726         0.26316
C          7.26231        -7.18804         0.56968
C         -5.52690        -8.99576         1.61935
C         -4.50291        -9.79306         1.22562
C         -3.45396        -9.32954         0.33428
C         -2.28252       -10.02903         0.25933
C         -1.07305        -9.52489        -0.40467
C          0.23419       -10.05258        -0.02025
C          1.42800        -9.48657        -0.49388
C          2.64752       -10.15910        -0.36978
C          3.90952        -9.56740        -0.81944
C          5.23778       -10.20377        -0.57016
C          6.29100        -9.47784        -0.15674
O          5.06562         1.27564        -2.21174
O          0.16792        -6.63633         0.49899
O         -1.71414        -3.22458         0.39045
O          0.84516        -1.02619         0.17381
O          0.41031         0.85904        -2.71366
O          6.83328         4.13814        -0.56841
O         -6.35084         4.93083        -0.93946
O          4.51572         4.40585        -2.52044
O          3.87720        -8.97510        -2.21376
O         -7.11824        -3.25811        -1.42863
O          8.03028         2.00043         0.00799
O          1.80570        -5.57101        -2.49437
O         -3.94562         4.90411        -1.79499
O         -5.75602        -1.19660        -1.89584
O          0.29775         7.77328         0.77068
O          5.76356        -2.03729        -2.28949
O          0.37842         3.37228        -2.87249
O          7.22455        -4.54612        -1.36633
O          5.80352        -6.82031        -1.99654
O         -5.82109        -7.77760        -1.20979
O         -4.11491         7.70489        -0.86249
O          8.24867        -1.90328        -0.34343
O         -3.36134        -8.10050        -1.82485
O          4.08777        -4.44400        -2.71384
O         -1.10912        -9.19693        -1.85480
O         -2.28129         2.29588        -2.46889
O          5.93246         6.81284        -1.61168
O         -4.54704         1.22308        -2.27952
O          7.14724         1.11442         3.22511
O          4.18513         9.10265        -2.23652
O          2.79261         2.18644        -3.07647
O          5.52290         2.75188         2.50436
O         -3.29129         9.31708         2.31775
H         -2.62334         8.62135         2.53978
O         -0.99365         3.46110         0.61445
H         -0.17663         3.89995         0.95271
O          1.44260        -3.59214         0.59496
H          1.24033        -2.66327         0.87583
O         -4.06753        -3.48243        -2.49087
H         -3.58795        -4.19602        -2.98172
O         -4.30868         2.66315         1.00967
H         -4.06535         3.50592         1.47261
O          1.34578        -8.25291        -2.58988
H          2.19071        -8.66857        -2.88841
O         -4.01911         5.35103         1.87364
H         -4.70082         5.56219         2.55996
O         -1.00603         0.87897         0.63699
H         -1.82015         0.47689         1.03373
O          5.19781        -8.11656         1.43812
H          5.67594        -8.62129         2.12902
O         -7.09677         1.04903        -1.92196
H         -6.56033         0.66072        -2.65041
O          0.86197         5.28363         0.48381
H          0.80916         6.01526         1.14535
O          0.16486        -2.99265        -2.81643
H          0.50482        -3.86495        -3.11425
O          4.62778         7.94226         1.62959
H          4.95294         8.33569         2.46707
O         -6.10092        -4.56232         2.24908
H         -6.10603        -5.03241         3.10909
O         -6.45665         5.60321         2.75841
H         -7.02447         6.14768         3.34467
O          5.89970        -5.62122         1.89331
H          5.36950        -6.46044         1.91132
O         -2.63645        -5.77296        -2.76543
H         -3.18270        -6.55921        -3.01632
O         -7.09609        -5.64930        -1.10568
H         -6.76549        -6.57330        -1.36923
O          1.02942         5.73758        -3.16086
H          0.38860         5.07459        -3.52583
O         -1.86337         7.01990         1.91593
H         -0.89516         6.90831         2.05696
O         -1.66675         9.35813        -1.84879
H         -0.92413         9.06476        -2.43541
O          3.61813         2.75207         0.68086
H          4.05658         2.57918         1.55966
O         -9.11129        -5.84874         0.57386
H         -8.70299        -5.94049        -0.32497
O         -3.44314        -0.39790         0.80181
H         -3.51068        -1.27913         1.25137
O         -4.43522        -2.83296         1.08292
H         -4.85758        -3.57434         1.59046
O         -6.43828         1.36779         1.64328
H         -6.94781         1.79920         2.36041
O          2.71746        -7.14432         0.67252
H          1.83765        -6.80448         0.98580
O         -8.20159         3.08131        -1.11043
H         -7.96228         3.92817        -1.54960
O          0.84414         8.32754        -2.78475
H          0.90217         7.44917        -3.25138
O        -10.42580        -1.51819        -0.66153
H         -9.79369        -1.99111        -1.24442
O          6.55648        -1.30583         2.76649
H          6.52596        -0.67343         3.52358
O         -1.37859         5.50709        -2.43373
H         -2.34233         5.31836        -2.57938
H         10.64191        -1.19859         3.70051
H         10.35821         1.17460         4.11619
H          9.67683         3.35896         2.82934
H          8.73343         5.62656         2.32042
H          7.55530         7.78146         1.88418
H          6.87367         9.96934         0.85643
H          5.22160        11.33318        -0.37719
H          2.53985        11.26772        -0.24727
H          0.20322        11.22500        -0.16631
H         -1.67945        10.77745         1.18592
H         -4.69851        11.14204         0.41348
H         -6.81173         9.91898         0.48592
H         -7.97647         7.77727         1.34992
H         -9.07100         5.41280         2.06883
H        -10.28060         3.30790         2.10138
H        -11.46190         1.21560         2.31442
H        -11.67902        -1.18897         1.87694
H        -10.31415        -3.26212         1.82550
H         -8.63556        -4.95879         2.36390
H         -7.20563        -7.17121         2.53950
H         -6.25167        -9.36159         2.36286
H         -4.39787       -10.80331         1.64838
H         -2.17261       -10.94195         0.86604
H          0.27528       -10.96730         0.59168
H          2.66591       -11.16199         0.08346
H          5.35325       -11.26987        -0.82023
H          7.28401        -9.93729        -0.04010
H          8.14228        -7.33482        -0.07957
H          8.75193        -5.47092         2.21751
H          9.96267        -3.33132         2.64524
