         349
 CSIRO Nanostructure Databank - Neutral Graphene Oxide Data Set
C          1.29835         3.40286        -0.56683
C          0.10362         4.05208        -0.71131
C          1.09191         6.23047        -0.16791
C          0.02343         5.48010        -0.58385
C          1.07217         7.68687        -0.19143
C         -0.09450         8.43114        -0.27326
C          1.07824        10.56108        -0.51275
C         -0.08188         9.86419        -0.32239
C          1.15655        12.07168        -0.52179
C         -0.04687        12.73084        -1.14543
C          1.16454        14.83967        -1.29541
C         -0.04147        14.07959        -1.36922
C          1.18247        16.27091        -1.25165
C         -0.04666        16.98659        -1.23974
C          1.13114        19.11007        -1.21515
C         -0.06062        18.36793        -1.20122
C          1.06422        20.58534        -1.18527
C         -0.11255        21.25110        -0.61101
C          1.16291        23.29158        -0.16284
C         -0.07207        22.54968        -0.21474
C          1.16776        24.70156         0.33926
C         -0.04552        25.38173         0.88075
C          1.31352        26.94917         2.29689
C          0.02253        26.46432         1.67285
C          1.35498        28.41091         2.68278
C          3.72493         3.54855        -0.21847
C          2.48336         4.12846        -0.19247
C          3.61047         6.33691         0.28567
C          2.32874         5.52864         0.34937
C          3.53187         7.75535         0.18165
C          2.33624         8.38683        -0.14260
C          3.61869        10.47151        -0.92574
C          2.32814         9.78685        -0.62909
C          3.62900        11.95791        -1.09689
C          2.45603        12.64582        -1.08089
C          3.67492        14.81362        -1.15057
C          2.43124        14.07849        -1.59464
C          3.67333        16.29585        -0.99300
C          2.40082        17.01865        -1.20075
C          3.63208        19.18424        -1.29232
C          2.39496        18.44263        -1.24213
C          3.68362        20.60608        -1.19102
C          2.38472        21.35180        -1.14304
C          3.68157        23.24664        -0.21493
C          2.34696        22.68077        -0.52273
C          3.75613        24.55434         0.47922
C          2.48243        25.29599         0.70612
C          3.66894        27.27526         1.47343
C          2.52986        26.54458         1.50337
C          3.61950        28.77126         1.67497
C          2.44188        29.18284         2.52834
C          6.14946         3.63144        -0.00371
C          4.92726         4.27559         0.10368
C          6.07243         6.44689         0.68169
C          4.85310         5.69968         0.39745
C          6.04832         7.84803         0.66631
C          4.74919         8.61133         0.46023
C          6.17555        10.50418        -0.58658
C          4.88838         9.75080        -0.54951
C          6.23404        11.93708        -1.05330
C          4.93255        12.62500        -1.40525
C          6.24416        14.88703        -1.26950
C          4.96306        14.12711        -1.47571
C          6.18046        16.36484        -1.07721
C          4.96424        17.01240        -1.09216
C          6.21134        19.18171        -1.60705
C          4.90228        18.43904        -1.44685
C          6.16750        20.70382        -1.74766
C          4.89102        21.31909        -1.18201
C          6.15055        23.51411        -0.75377
C          4.82769        22.83801        -1.11775
C          6.16704        24.81378        -0.18465
C          4.97833        25.35329         0.37326
C          6.21057        27.41025         1.21413
C          4.94975        26.63072         1.08971
C          6.13044        28.84070         1.62765
C          4.94784        29.40238         2.00424
C          8.55912         3.57009         0.41999
C          7.35952         4.27359         0.37741
C          8.37496         6.04636         1.61719
C          7.29629         5.64500         0.87212
C          8.41184         8.23371         1.46226
C          7.21376         8.70156         0.79222
C          8.50679        10.72979         0.25519
C          7.29261         9.97354         0.21240
C          8.54325        12.08315        -0.08996
C          7.41309        12.76927        -0.65746
C          8.65498        14.94286        -0.58780
C          7.45645        14.15435        -0.84398
C          8.64679        16.37842        -0.74787
C          7.43882        17.09556        -1.03261
C          8.66156        19.24981        -1.02288
C          7.45511        18.50242        -1.18087
C          8.62743        20.73546        -1.11339
C          7.44087        21.40474        -1.30555
C          8.66898        23.67658        -1.15233
C          7.36157        22.92193        -1.46168
C          8.64005        25.13325        -0.73413
C          7.37324        25.66382        -0.15465
C          8.60550        27.68353         0.64217
C          7.39330        26.89018         0.48973
C          8.53337        29.04860         1.15512
C          7.37047        29.58359         1.63186
C         10.91653         3.30373         0.77123
C          9.77235         4.06431         0.98631
C         10.87135         6.38755         1.23782
C          9.72749         5.39169         1.75374
C         10.89231         7.89104         1.65798
C          9.66419         8.65239         1.15473
C         10.93928        10.71625         1.07905
C          9.79813         9.95121         0.38907
C         10.97938        12.20761         0.73981
C          9.74830        12.88739         0.22794
C         11.06533        15.01655         0.02756
C          9.84161        14.29941        -0.20099
C         11.07806        16.41857        -0.21918
C          9.86253        17.10891        -0.58241
C         11.14338        19.24192        -0.75359
C          9.84703        18.53272        -0.75733
C         11.14477        20.75296        -0.82323
C          9.86718        21.50614        -0.90718
C         11.11421        23.62052        -0.47381
C          9.90605        22.88989        -0.89604
C         11.09279        24.95427        -0.10857
C          9.95639        25.87614        -0.44821
C         11.06261        27.84405         0.63752
C          9.83241        27.10204         0.42121
C         11.04461        29.19839         0.84138
C          9.74850        29.94153         1.02290
C         13.44785         3.38157         0.69222
C         12.21730         3.67752         1.22866
C         13.41033         6.40240         1.33379
C         12.21734         5.83019         1.65884
C         13.40964         7.83455         1.03373
C         12.20874         8.52125         1.11482
C         13.48237        10.70476         0.57513
C         12.18366         9.94195         0.73007
C         13.46136        12.17042         0.71512
C         12.28915        12.89983         0.61843
C         13.48080        15.07017         0.66262
C         12.26705        14.33950         0.47139
C         13.50255        16.45335         0.41784
C         12.31008        17.15578        -0.02234
C         13.52827        19.34853         0.17577
C         12.33633        18.53584        -0.25338
C         13.57915        20.77293        -0.28510
C         12.37659        21.48641        -0.44486
C         13.59443        23.59008        -0.10062
C         12.35674        22.88398        -0.34315
C         13.58045        24.93310         0.20789
C         12.28358        25.60845         0.54912
C         13.49580        27.81734         0.43433
C         12.32360        27.12861         0.45029
C         13.59251        29.27064         0.85377
C         12.28385        30.04480         0.64019
C         15.85570         3.50524         0.75527
C         14.65104         4.13515         1.00432
C         15.95583         6.35355         1.11154
C         14.65973         5.58388         1.39165
C         15.91285         7.80781         0.82769
C         14.68489         8.53144         0.82874
C         15.95992        10.65929         0.64992
C         14.72322         9.94014         0.72041
C         15.97506        12.06630         0.73389
C         14.72907        12.79369         1.23200
C         16.05126        15.04300         0.96694
C         14.72338        14.33348         1.09380
C         16.08559        16.52291         0.69243
C         14.76335        17.23285         0.52090
C         16.03521        19.27665        -0.12125
C         14.81771        18.61209         0.01633
C         16.04097        20.69894        -0.37492
C         14.83829        21.44194        -0.30875
C         16.06957        23.57570        -0.09387
C         14.85941        22.88147        -0.21229
C         16.11294        24.99752         0.07898
C         14.84511        25.67635         0.52878
C         15.97236        27.87379        -0.24232
C         14.74118        27.10729         0.05990
C         15.95390        29.35218        -0.10286
C         14.79862        29.99270         0.29333
C         18.29297         3.46453         0.32722
C         17.10614         4.19219         0.63843
C         18.32778         6.29423         0.32378
C         17.14040         5.60075         0.67024
C         18.35050         7.72797         0.28897
C         17.13383         8.48012         0.52204
C         18.40205        10.57905         0.16306
C         17.16935         9.89918         0.45014
C         18.43885        12.00134         0.12385
C         17.26558        12.75496         0.63415
C         18.41406        14.95465        -0.03777
C         17.31645        14.25604         0.71910
C         18.53252        16.42948         0.03136
C         17.31903        17.19373         0.22647
C         18.59363        19.32187        -0.00977
C         17.29023        18.55262        -0.04080
C         18.57423        20.58676        -0.86690
C         17.29594        21.39640        -0.69111
C         18.60970        23.54767        -0.09235
C         17.31897        22.88929        -0.46138
C         18.63771        25.08276         0.01794
C         17.27782        25.73027        -0.14002
C         18.39797        27.87763        -0.66091
C         17.27159        27.16163        -0.28258
C         18.35926        29.33285        -0.70551
C         17.17192        30.03153        -0.39407
C         19.46533         4.12456         0.04628
C         20.70309         6.24318        -0.28990
C         19.50509         5.54745         0.02344
C         20.72423         7.61745        -0.31884
C         19.55537         8.38763        -0.04229
C         20.76814        10.53309        -0.43385
C         19.58682         9.83387        -0.10731
C         20.78033        11.91484        -0.51528
C         19.62413        12.66795        -0.22860
C         20.87874        14.88317        -0.59795
C         19.61816        14.14140        -0.45112
C         20.90792        16.23787        -0.57303
C         19.73338        17.04498        -0.32285
C         20.97081        19.17471        -0.66896
C         19.81905        18.49482        -0.37581
C         21.01821        20.62054        -0.63034
C         19.87944        21.36244        -0.64600
C         21.10151        23.64560        -0.54398
C         19.89037        22.81423        -0.30415
C         21.02254        24.95769        -0.83308
C         19.72166        25.68372        -0.87371
C         20.80666        27.98974        -1.41456
C         19.62353        27.17725        -1.11996
C         20.74320        29.36032        -1.34300
C         19.54506        30.03507        -1.01427
O          5.82309        26.51907         2.32628
O          5.56992        18.57854        -2.78224
O         15.42896        14.84973         2.26871
O         15.09241        27.35261        -1.33715
O         19.27794        22.94736         1.06500
O         17.22315        22.35069        -1.82463
O          3.61426        15.35682         0.19224
O          5.70375        14.59610        -2.62737
O         12.23916         4.59771         2.29551
O          5.79933         9.53384        -1.64561
O         11.38399        19.95211        -2.04775
O          2.89915         9.82946        -2.02836
O          8.72351        24.76610        -2.15517
O          3.95767        23.27931         1.22293
O         15.46607        17.22097         1.82979
O         18.55888        14.49404        -1.42811
O         19.31183        26.14202        -2.17782
O         12.69355        10.23161        -0.59238
O         10.08755        12.88409         1.70079
O          5.77803        12.04283        -2.43342
O         15.54230         5.96404         2.48198
O          1.61516        21.23410        -2.38064
O          1.85974        25.60743        -0.61133
O          8.25273         7.19693         2.40208
O         17.71689        13.51154         1.89658
O         10.20334         9.67955        -0.97773
H          9.42659         9.33409        -1.46641
O          9.93337         5.16162         3.15488
H         10.01785         6.04275         3.58567
O         19.02694        25.42700         1.37492
H         19.34865        24.59140         1.79781
O         10.41445        26.49242        -1.70443
H         10.13225        25.88613        -2.43164
O          7.09825        23.12014        -2.88218
H          7.42099        24.02519        -3.10647
O         10.80010         6.34308        -0.20274
H         11.35159         7.06962        -0.56775
O         12.10685        25.38194         2.00183
H         12.95359        25.66575         2.42395
O          2.52335        14.00141        -3.04688
H          1.80879        13.41361        -3.36992
O         13.36434        19.50238         1.66089
H         13.84739        18.76463         2.09775
O          4.46662        23.32138        -2.43825
H          5.17191        22.98868        -3.05045
O          1.15904        12.46809         0.89465
H          1.19522        13.44887         0.92480
O          2.08577         5.36409         1.80007
H          2.78070         4.76296         2.14437
O         13.78694        29.23559         2.30731
H         14.55590        28.65709         2.49764
O          4.47131         9.30545         1.72200
H          4.32042         8.62847         2.41532
O          6.03244        20.98648        -3.17119
H          5.60057        20.18860        -3.56730
O         14.68080        12.49206         2.66205
H         15.23623        13.17818         3.10616
O         10.93023         7.92143         3.09469
H         10.91622         8.87466         3.35498
O         12.22248        30.55466        -0.70276
H         12.24376        29.79448        -1.32128
O          9.84802        30.83025         2.14819
H         10.01490        30.29125         2.94856
O         10.76811        10.60520         2.51106
H         10.28906        11.42064         2.80041
O         14.92341        25.77340         2.00595
H         15.20318        24.89556         2.34484
O          1.41412        26.20488         3.55764
H          2.26473        26.44920         3.98066
O         18.57033        20.13832        -2.24088
H         18.27099        20.89587        -2.79212
O         18.74125        19.74864         1.37290
H         18.68857        18.95688         1.94815
O          3.31662        29.29668         0.32905
H          2.47688        28.88587         0.03002
H          1.38386         2.32804        -0.78457
H         -0.79418         3.49870        -1.01976
H         -0.90700         5.97264        -0.90203
H         -1.07024         7.92682        -0.23860
H         -1.04229        10.38939        -0.22191
H         -0.98818        12.17065        -1.22981
H         -0.99412        14.57606        -1.60936
H         -1.00264        16.44954        -1.26648
H         -1.02867        18.88554        -1.20110
H         -1.04191        20.68131        -0.47472
H         -0.98370        23.01719         0.18237
H         -1.02886        25.04677         0.51589
H         -0.90736        26.95976         1.99300
H          0.49081        28.79443         3.24899
H          3.82885         2.49710        -0.52842
H          2.43001        30.21994         2.90035
H          6.18158         2.57611        -0.31239
H          4.93628        30.45453         2.32961
H          8.57113         2.54780         0.01143
H          7.35749        30.63064         1.96932
H         10.83509         2.42871         0.10740
H          9.60320        30.60284         0.12149
H         13.53841         2.56016        -0.03453
H         12.26416        30.92590         1.32649
H         15.84671         2.43011         0.51995
H         14.80194        31.09080         0.37419
H         18.25474         2.36583         0.31530
H         17.19532        31.13075        -0.35281
H         20.38233         3.56249        -0.18196
H         21.61442         5.67023        -0.51329
H         21.66607         8.12216        -0.56899
H         21.69704         9.99093        -0.64972
H         21.71110        12.41785        -0.80723
H         21.82238        14.33083        -0.70117
H         21.87426        16.74201        -0.70754
H         21.91503        18.64446        -0.85612
H         22.00607        21.09664        -0.54179
H         22.08412        23.15055        -0.54022
H         21.94206        25.51253        -1.07419
H         21.73340        27.49259        -1.73171
H         21.63813        29.95530        -1.57462
H         19.52902        31.13399        -1.01510
