         404
 CSIRO Nanostructure Databank - Neutral Graphene Oxide Data Set
C          1.64000         3.65246         1.54811
C          0.45447         4.35508         1.71456
C          1.36191         6.26414         0.47830
C          0.31357         5.64828         1.19850
C          1.24152         7.64180        -0.02349
C          0.04604         8.36294         0.04599
C          1.09706        10.43513        -0.70397
C         -0.03727         9.72071        -0.31439
C          1.08151        11.87972        -0.99146
C         -0.15883        12.59733        -1.21337
C          0.96255        14.79202        -1.10658
C         -0.20609        13.94673        -1.39271
C          1.00539        16.25332        -1.38763
C         -0.18333        16.98819        -1.51366
C          1.02784        19.10545        -1.43243
C         -0.17820        18.37994        -1.53317
C          1.05284        20.55549        -1.31323
C         -0.14243        21.30525        -1.30251
C          1.07932        23.35421        -0.82588
C         -0.13043        22.67134        -1.07379
C          1.06526        24.76523        -0.35241
C         -0.13657        25.59888        -0.42662
C          1.15966        27.65043        -0.02595
C         -0.08774        26.92970        -0.15029
C          1.19089        29.07506         0.28530
C          0.05436        29.83846         0.35563
C          1.27195        31.80569         1.13161
C          0.10431        31.21099         0.73957
C          1.76305        33.55428         2.61684
C          0.89185        34.00094         3.61954
C          2.79852        34.80025         4.87720
C          1.41277        34.56624         4.78038
C          3.34617        35.58068         5.97956
C          3.95437         3.55575         0.68583
C          2.72383         4.24575         0.84571
C          3.65824         6.10687        -0.56795
C          2.56852         5.55688         0.30987
C          3.65190         7.61177        -0.66215
C          2.40892         8.30880        -0.52406
C          3.49675        10.38000        -1.25145
C          2.33130         9.71224        -0.78969
C          3.56453        11.85850        -1.07278
C          2.27312        12.57969        -1.11314
C          3.54928        14.81390        -1.20382
C          2.29582        14.04779        -0.99548
C          3.50671        16.23550        -1.31327
C          2.24964        16.94728        -1.37490
C          3.49235        19.10061        -1.43682
C          2.25001        18.37752        -1.40553
C          3.52445        20.52039        -1.31359
C          2.29411        21.24901        -1.16244
C          3.58640        23.37138        -0.70179
C          2.29583        22.65299        -0.89629
C          3.62654        24.84727        -0.74895
C          2.40640        25.53631        -0.31242
C          3.57620        27.76482        -0.57261
C          2.35071        26.99394        -0.27526
C          3.71582        29.09689         0.03745
C          2.50607        29.66202         0.66299
C          3.88615        31.81532         1.07800
C          2.57564        31.09649         1.17718
C          4.09721        33.05783         1.73945
C          3.16210        33.63240         2.73697
C          5.11637        34.75748         3.87906
C          3.65550        34.36017         3.84452
C          5.33940        36.04648         4.66033
C          4.55731        36.19051         5.87391
C          6.33834         3.48469         0.04188
C          5.10253         4.19213         0.13377
C          6.19876         6.12297        -1.04532
C          5.02082         5.53238        -0.30501
C          6.16150         7.65133        -1.20949
C          4.78252         8.25885        -1.17845
C          6.44791        10.73966        -1.45360
C          4.58997         9.59556        -1.59891
C          6.19658        12.07179        -1.12516
C          4.83554        12.66762        -1.04049
C          5.99817        14.88291        -1.01197
C          4.77837        14.14754        -1.14227
C          5.99554        16.29550        -1.21517
C          4.73430        16.96357        -1.41972
C          5.93621        19.10357        -1.85078
C          4.70086        18.37160        -1.57251
C          5.93451        20.56135        -1.77277
C          4.78378        21.21965        -1.40721
C          6.06746        23.43353        -1.43666
C          4.86398        22.65256        -1.04042
C          6.02296        24.86363        -1.35333
C          4.80984        25.53564        -1.03606
C          6.10227        27.75058        -0.88705
C          4.81471        27.03163        -1.02644
C          6.12151        29.11723        -0.48726
C          4.92066        29.79018        -0.00961
C          6.21869        31.89844         0.25626
C          4.99786        31.17238         0.46229
C          6.29292        33.28055         0.62143
C          5.29862        33.76991         1.53530
C          6.25086        35.98582         2.06515
C          5.57909        34.86926         2.45356
C          6.86664        36.93766         2.96163
C          6.24016        37.00395         4.26880
C          8.78952         3.50456        -0.15210
C          7.54460         4.16586        -0.24506
C          8.68798         6.33663        -0.38472
C          7.51305         5.57434        -0.53471
C          8.66278         7.78479        -0.41702
C          7.45628         8.47569        -0.97118
C          8.45385        10.68330        -0.14977
C          7.45990         9.96835        -0.85542
C          8.40972        12.09790        -0.12866
C          7.26680        12.80116        -0.57383
C          8.39835        14.98837        -0.41811
C          7.19909        14.24109        -0.60665
C          8.42363        16.39710        -0.69691
C          7.21802        17.01404        -1.10808
C          8.44818        19.24019        -1.23221
C          7.26682        18.40686        -1.54358
C          8.43286        20.57609        -1.52497
C          7.21933        21.26205        -2.13300
C          8.47340        23.46251        -2.07728
C          7.20081        22.74583        -1.85249
C          8.47863        24.97064        -2.04697
C          7.14913        25.72143        -1.92661
C          8.53372        27.73865        -1.19026
C          7.28110        27.07332        -1.24270
C          8.56536        29.13860        -0.87016
C          7.36350        29.82145        -0.53195
C          8.60314        31.95338        -0.43011
C          7.39292        31.23326        -0.24645
C          8.60079        33.36766        -0.26080
C          7.45986        34.03934         0.22337
C          8.76525        36.12729         0.67602
C          7.56567        35.45720         0.46554
C          8.93169        37.28591         1.53998
C          8.00452        37.63974         2.60027
C         11.24931         3.60207        -0.03702
C          9.99075         4.24396        -0.10250
C         11.07788         6.42547         0.31739
C          9.91829         5.68027        -0.05676
C         10.97940         7.86190         0.48954
C          9.73658         8.50051         0.11467
C         10.79022        10.71959         0.93909
C          9.58911         9.94117         0.44346
C         10.76926        12.21871         0.86821
C          9.52183        12.91973         0.37492
C         10.85258        15.01402        -0.16487
C          9.58205        14.31929        -0.06784
C         10.86764        16.48244        -0.25692
C          9.65310        17.13795        -0.56403
C         10.83675        19.28539        -0.55356
C          9.66682        18.56740        -0.76396
C         10.74839        20.80126        -0.62336
C          9.77005        21.25497        -1.70653
C         10.92447        23.45365        -1.72479
C          9.73228        22.76061        -1.77556
C         10.96270        24.88500        -1.73581
C          9.75073        25.64219        -1.70216
C         11.07164        27.68176        -1.12900
C          9.75358        27.01533        -1.42470
C         11.02141        29.18635        -1.28507
C          9.80737        29.86989        -0.98784
C         11.02342        32.02077        -1.08246
C          9.81403        31.28555        -0.84704
C         11.06752        33.45329        -0.88214
C          9.80189        34.14083        -0.60132
C         11.23446        36.16917         0.13833
C          9.91109        35.59528        -0.06032
C         11.32334        37.41485         0.84285
C         10.17411        37.92304         1.53859
C         13.70085         3.72564         0.24996
C         12.42449         4.34429         0.20642
C         13.47306         6.43847         1.03053
C         12.30157         5.74493         0.49444
C         13.37847         7.95616         1.24008
C         12.11522         8.61967         0.87270
C         13.27619        10.77696         1.23563
C         12.10858        10.04528         0.97197
C         13.20539        12.25165         1.39754
C         12.03234        12.93518         0.85996
C         13.30540        15.12022         0.65314
C         12.13357        14.28142         0.34551
C         13.28403        16.50342         0.30851
C         12.10432        17.18815        -0.10429
C         13.24345        19.40996        -0.00973
C         12.08945        18.64483        -0.22770
C         13.15550        20.93717         0.13766
C         12.07585        21.46412        -0.75599
C         13.45748        23.47734        -1.41719
C         12.21556        22.64863        -1.66113
C         13.46934        24.81983        -1.86810
C         12.23165        25.57980        -1.82814
C         13.44956        27.73911        -2.12664
C         12.24028        26.97241        -1.77461
C         13.42032        29.21879        -1.97997
C         12.18915        29.91772        -1.52437
C         13.38867        32.10580        -1.89882
C         12.19237        31.33295        -1.47995
C         13.45330        33.58202        -1.53096
C         12.25582        34.18588        -0.91940
C         13.63593        36.19778        -0.34898
C         12.36220        35.53034        -0.39949
C         13.70370        37.50810         0.25020
C         12.55534        38.07370         0.87013
C         16.15991         3.84269         0.46417
C         14.88615         4.46035         0.50679
C         15.96140         6.61813         1.07125
C         14.80383         5.84646         0.85716
C         15.88612         8.05410         1.27440
C         14.63669         8.72669         1.25870
C         15.77555        10.90916         1.44100
C         14.56555        10.14184         1.30506
C         15.75541        12.33558         1.48316
C         14.47749        13.06272         1.48864
C         15.68967        15.22861         1.30449
C         14.47545        14.49613         1.11446
C         15.71933        16.64868         1.10563
C         14.56436        17.22738         0.38039
C         15.70108        19.48230         0.71824
C         14.53711        18.74249         0.18971
C         15.74785        20.91189         0.32040
C         14.50676        21.63988        -0.07781
C         15.93976        23.36081        -1.31186
C         14.61668        22.81639        -0.98440
C         16.03713        24.79900        -1.82521
C         14.74382        25.50581        -2.11418
C         16.03092        27.71795        -1.92701
C         14.77338        27.02687        -2.22684
C         16.00400        29.19402        -1.78490
C         14.71612        29.93986        -1.78849
C         15.98939        32.16524        -2.15308
C         14.69317        31.39379        -2.14779
C         15.94010        33.59895        -1.77016
C         14.77777        34.23665        -1.37951
C         16.05612        36.29404        -0.79206
C         14.81573        35.58940        -0.85201
C         16.09584        37.64089        -0.27920
C         14.92006        38.21468         0.24756
C         18.61497         3.94576         0.70254
C         17.32448         4.57785         0.72477
C         18.43159         6.73612         1.20306
C         17.23973         5.98181         0.99940
C         18.36538         8.15096         1.40831
C         17.09018         8.81146         1.39784
C         18.23900        10.98939         1.68540
C         17.03209        10.23473         1.50184
C         18.18332        12.41210         1.79511
C         16.93138        13.08814         1.62237
C         18.02612        15.28208         2.01992
C         16.88154        14.53143         1.63534
C         17.91358        16.70752         2.17226
C         16.80913        17.42748         1.55111
C         17.96635        19.77756         1.57944
C         16.80223        18.88537         1.30882
C         18.17584        20.94484         0.79395
C         17.09806        21.39089        -0.10889
C         18.38816        23.55852        -0.56729
C         17.19039        22.72360        -0.78353
C         18.41657        24.92651        -1.00334
C         17.25587        25.57998        -1.54459
C         18.47356        27.74123        -1.52011
C         17.23881        27.00732        -1.69747
C         18.55337        29.17052        -1.89145
C         17.25325        29.95338        -2.10409
C         18.48935        32.08314        -1.87917
C         17.27734        31.42518        -1.98145
C         18.54037        33.56656        -1.94010
C         17.20599        34.34749        -1.82595
C         18.49335        36.37909        -1.15814
C         17.25935        35.69716        -1.25043
C         18.50802        37.75199        -0.72410
C         17.31249        38.35851        -0.30239
C         19.75420         4.66629         0.93280
C         20.87025         6.83353         1.39098
C         19.69462         6.07690         1.17918
C         20.80428         8.19908         1.60001
C         19.56502         8.88969         1.60273
C         20.64853        11.10326         2.04675
C         19.49777        10.32689         1.78440
C         20.57169        12.47494         2.24088
C         19.34409        13.15983         2.12432
C         20.24424        15.28494         3.05116
C         19.22856        14.58933         2.38105
C         20.03882        16.61188         3.43323
C         18.89902        17.29277         3.00657
C         20.04705        20.36075         2.76411
C         18.90754        19.56027         2.59982
C         20.28291        21.41790         1.89843
C         19.33370        21.74704         0.90596
C         20.67461        23.73992         0.22833
C         19.46875        22.99968         0.14575
C         20.74172        25.03719        -0.23488
C         19.60722        25.68405        -0.77665
C         20.84069        27.86207        -0.91128
C         19.63831        27.09658        -1.08831
C         20.87972        29.22439        -1.08769
C         19.74938        29.95113        -1.54895
C         20.91500        32.12417        -1.40601
C         19.73210        31.36866        -1.63959
C         20.92351        33.51008        -1.32823
C         19.76502        34.27335        -1.55087
C         20.93737        36.45435        -1.33267
C         19.74543        35.70583        -1.39305
C         20.92578        37.82266        -1.02302
C         19.74173        38.46266        -0.69505
O         14.81892        26.17892        -3.41941
O          6.77716        18.55816        -2.93581
O         13.14537        33.12612        -2.89848
O          9.58056        35.29825        -1.45863
O          4.46097        22.83111         0.36374
O          2.61618        29.96042         2.10730
O          5.58623        10.16854        -2.38757
O         16.15776        23.65985        -2.73401
O          1.18423        33.16107         1.40340
O         13.25489        28.63272        -3.30999
O          4.23299        12.17278         0.23693
O         13.25079         7.02341         2.36329
O         15.31052        31.75627        -3.40504
O          6.39217        36.18759         0.68343
O          8.55814        24.25980        -3.33474
O          3.93249        27.67289        -2.01043
O         18.70797        18.56611         3.55623
O          1.56715        14.50702         0.19841
O         15.37582        29.67063        -0.50405
O         13.67314        12.77043         2.70505
O         17.43289        21.44937        -1.51563
O          9.81480        10.18025         1.87837
O         17.99359        29.43672        -3.23373
O         17.89556        34.17186        -3.10436
O          7.04389         8.01879        -2.31252
O          1.81402        24.91787         0.88976
O         15.15318        21.90337         1.25001
O         11.77760        14.34542        -1.09753
O          9.80342        12.80982         1.82725
O         14.93521        17.83921        -0.90550
O          3.32228         5.65717        -1.94272
H          4.17790         5.61258        -2.44166
O          6.06636         5.61397        -2.43495
H          6.62880         6.20566        -2.98935
O         11.29911        27.48638         0.33463
H         10.50518        27.83063         0.79828
O         12.46266        22.14262        -3.01993
H         12.40655        22.90057        -3.63975
O         12.73905        21.18085         1.52936
H         13.55364        21.47413         2.01104
O         10.23107        20.77905        -2.99423
H          9.54390        21.03086        -3.65354
O          7.40574        21.12239        -3.58646
H          7.27037        20.15957        -3.78034
O          5.88238        33.71342         4.54850
H          5.50677        33.60497         5.44739
O          6.71464        26.04552        -3.27813
H          7.10605        25.35808        -3.86890
O         10.15245        21.24104         0.64287
H         10.86954        21.20696         1.32296
H          1.75262         2.63992         1.96095
H         -0.38158         3.89790         2.26206
H         -0.63325         6.18060         1.36092
H         -0.87138         7.87035         0.39654
H         -1.01166        10.22405        -0.24350
H         -1.07824        12.01106        -1.35704
H         -1.14243        14.41764        -1.72555
H         -1.14790        16.46260        -1.54227
H         -1.14166        18.90300        -1.58907
H         -1.11029        20.80833        -1.44760
H         -1.08540        23.21171        -1.03716
H         -1.09926        25.13860        -0.68914
H         -1.02732        27.49879        -0.13949
H         -0.92410        29.41530         0.09436
H         -0.81516        31.80941         0.72306
H         -0.19203        33.90557         3.47636
H          0.74303        34.90790         5.58182
H          2.70677        35.76113         6.85601
H          4.03875         2.51892         1.04405
H          4.89940        36.89092         6.65084
H          6.37184         2.42084         0.31850
H          6.46801        37.85288         4.93243
H          8.81804         2.41070        -0.04412
H          8.38427        38.38283         3.32138
H         11.30745         2.50969        -0.14670
H         10.31879        38.80447         2.18183
H         13.77646         2.64799         0.04414
H         12.64611        39.04698         1.37412
H         16.23323         2.77140         0.22586
H         14.95854        39.22644         0.67708
H         18.66866         2.86624         0.50013
H         17.32838        39.40097         0.04828
H         20.73758         4.17417         0.91924
H         21.84546         6.32574         1.38117
H         21.74055         8.75208         1.75220
H         21.63176        10.62146         2.12802
H         21.49316        13.02785         2.46826
H         21.16215        14.77212         3.36619
H         20.76449        17.12854         4.07417
H         20.74427        20.13910         3.58209
H         21.18328        22.02764         2.04326
H         21.57167        23.29484         0.67682
H         21.69099        25.57620        -0.12768
H         21.76076        27.36147        -0.58618
H         21.81940        29.74922        -0.87107
H         21.86611        31.59931        -1.25054
H         21.86796        34.01389        -1.08073
H         21.89942        35.96935        -1.54679
H         21.87329        38.37906        -1.00741
H         19.74295        39.52148        -0.39953
