         260
 CSIRO Nanostructure Databank - Neutral Graphene Oxide Data Set
C         30.17983        31.57526        -0.76303
C         30.20279        32.82371        -0.86448
C         30.54734        35.73596         0.20824
C         30.70251        36.93277         0.67224
C         30.83341        40.05856         1.52787
C         30.72619        41.31600         1.81241
C         32.56877        28.73092         0.03096
C         31.51284        29.37518        -0.19481
C         32.54840        31.52157        -0.28068
C         31.25578        30.72718        -0.44493
C         32.63821        32.90173        -0.90898
C         31.28693        33.74041        -1.31099
C         32.60968        35.91388        -0.95997
C         31.36907        35.09487        -0.67264
C         32.52485        37.44868        -0.74085
C         31.62724        37.90840         0.42872
C         33.07724        40.00456         0.80701
C         31.71136        39.26289         0.85668
C         33.00952        41.55251         0.95387
C         31.71139        42.20681         1.47542
C         32.64283        44.33943         0.74635
C         31.84921        43.61785         1.37303
C         35.41558        27.20371         0.22460
C         35.22159        28.60244        -0.15276
C         33.90655        29.30128        -0.19998
C         35.20288        31.53823        -0.03691
C         33.86216        30.80637        -0.02796
C         35.20043        33.04110        -0.27187
C         33.93617        33.65907        -0.83409
C         35.16554        35.89710        -0.49168
C         33.92002        35.16506        -0.99788
C         35.17951        37.36757        -0.92447
C         33.88791        38.14430        -0.76557
C         35.20460        40.26390        -0.49098
C         33.97721        39.54517        -0.33752
C         35.07518        41.78221        -0.68658
C         34.03432        42.40226         0.24342
C         35.08766        44.71681        -0.23555
C         33.84911        43.90899         0.03460
C         35.31058        46.10885         0.15590
C         37.82474        27.17461         0.21321
C         36.48626        26.60504         0.33428
C         37.73832        28.66492         0.01333
C         36.54035        29.34842        -0.04254
C         37.67053        31.55813        -0.19010
C         36.49526        30.80800        -0.14468
C         37.67081        32.98413        -0.38940
C         36.49388        33.71535        -0.54257
C         37.67396        35.86369        -0.69202
C         36.48565        35.16510        -0.71519
C         37.74980        37.33750        -0.80047
C         36.47229        38.12731        -0.83141
C         37.67887        40.24358        -0.15877
C         36.42084        39.58193        -0.57888
C         37.66703        41.75499        -0.25050
C         36.39405        42.56182        -0.59423
C         37.65047        44.68277        -0.12954
C         36.42939        44.01484        -0.29975
C         37.73821        46.19633         0.05290
C         36.38279        46.66971         0.38073
C         40.01821        25.28455         2.67389
C         39.13798        25.47345         1.80772
C         40.10940        27.64376         1.27218
C         39.05316        26.61576         0.90651
C         40.33884        28.68593         0.19643
C         39.03535        29.40799        -0.32792
C         40.22311        31.61447        -0.39524
C         38.99745        30.88264         0.13717
C         40.24475        32.96282        -0.59814
C         38.98908        33.73300        -0.23609
C         40.22588        35.86426        -1.05890
C         38.94062        35.11456        -0.85961
C         40.22120        37.34595        -0.82817
C         39.05591        38.00744        -0.53619
C         40.28802        40.16478        -0.06605
C         38.99418        39.43518        -0.09100
C         40.44159        41.36726         0.55503
C         38.65635        42.57424         0.42642
C         40.21690        44.53938         0.39621
C         38.83915        43.92825         0.22636
C         40.32215        46.03544         0.50956
C         39.02046        46.85950         0.43694
C         40.13371        48.41005         1.99008
C         39.17837        48.02521         1.31352
C         42.44404        25.70850         3.54761
C         41.21609        25.97134         2.96261
C         42.49849        28.10006         2.15933
C         41.22217        27.33200         2.26747
C         42.53331        29.26591         1.29589
C         41.44776        29.64018         0.52598
C         42.77268        31.45947        -0.73737
C         41.47792        30.81590        -0.37979
C         42.77376        32.92502        -1.15371
C         41.48612        33.70330        -0.87168
C         42.78488        35.82164        -1.00003
C         41.49484        35.07553        -0.98203
C         42.80967        37.32636        -0.89503
C         41.50853        38.11950        -1.07859
C         42.84849        40.12396        -0.03010
C         41.55578        39.40728        -0.27427
C         42.85163        41.62886        -0.00564
C         41.55190        42.29855         0.29114
C         42.81311        44.49118         0.48232
C         41.48008        43.72200         0.85540
C         42.82847        45.82744         1.18464
C         41.60482        46.74048         1.03033
C         42.71483        48.25544         2.57684
C         41.35634        47.62612         2.36143
C         43.46964        26.45520         3.52803
C         44.86035        28.52358         2.90968
C         43.66362        27.66939         2.83899
C         45.00433        29.68624         1.92230
C         43.87631        29.84633         0.95340
C         45.37641        31.50841        -0.43704
C         44.03032        30.83726        -0.16783
C         45.27101        32.98669        -0.71992
C         44.07181        33.63795        -0.81778
C         45.17725        35.59922        -1.71485
C         44.03764        35.04380        -1.21345
C         45.18763        37.78907        -1.70989
C         44.06651        38.15807        -1.05506
C         45.41854        40.22404        -0.37078
C         44.15031        39.44352        -0.32644
C         45.37741        41.68795        -0.08884
C         44.10772        42.35394         0.25865
C         45.28441        44.26825         1.21929
C         44.07658        43.65356         0.71767
C         45.23013        45.57196         1.73809
C         43.99586        46.32456         1.73318
C         43.73980        47.57712         2.41427
C         47.23872        28.80896         3.30408
C         46.20619        28.13020         3.32763
C         47.50223        30.01230         2.50029
C         46.32858        30.30287         1.60749
C         47.73128        31.84264         0.28593
C         46.46523        31.22385         0.57969
C         47.78702        33.18909        -0.36149
C         46.58472        33.64750        -1.15327
C         47.78496        36.00476        -1.37239
C         46.52624        35.16072        -1.28237
C         47.78381        37.49777        -1.72899
C         46.54356        38.38547        -1.66584
C         47.88859        40.16504        -0.46632
C         46.66602        39.70024        -0.99190
C         47.84478        41.32688         0.49276
C         46.66515        42.26745         0.40086
C         47.84246        43.97930         1.95746
C         46.51912        43.43008         1.33354
C         47.62501        45.40131         2.23244
C         46.50134        45.93770         2.29115
C         50.22298        30.08171         2.41845
C         48.86955        30.54376         2.09651
C         50.16557        31.83186         0.32109
C         48.92822        31.39435         0.87137
C         50.10751        32.74624        -0.86135
C         49.11025        33.86577        -0.76377
C         50.43176        35.98249        -1.81844
C         49.13072        35.23145        -1.48862
C         50.39576        37.54635        -1.87017
C         49.10435        38.24194        -1.53366
C         50.33184        39.84173         0.05084
C         49.11607        39.51855        -0.74558
C         50.42476        41.06547         1.02678
C         49.09072        41.84390         1.15809
C         50.29877        43.89672         1.25551
C         49.09674        43.33029         1.54190
C         51.27310        30.45851         1.86550
C         52.51244        32.25659         0.41178
C         51.43114        31.46105         0.85387
C         52.64149        33.36022        -0.18519
C         52.73806        34.66101        -0.63600
C         52.87267        36.43208        -2.24064
C         52.18907        35.18408        -1.93155
C         52.85837        37.61528        -1.91835
C         51.67463        38.50347        -1.70900
C         52.82076        39.97704         0.06780
C         51.65512        39.18029        -0.36129
C         52.78009        41.20094         0.31314
C         51.69331        42.01503         0.70365
C         51.39916        43.31858         0.88499
O         44.17449        29.40480        -0.42042
O         40.51700        45.37498        -0.76394
O         42.01938        42.19306        -1.10000
O         42.92504        32.94019        -2.67182
O         45.09339        36.68765        -2.56894
O         46.93570        43.14101         2.69657
O         42.10609        30.57375        -1.69816
O         48.15071        41.00994         1.89275
O         35.17278        35.81994         0.91306
O         50.89366        38.58080         0.67011
O         38.15296        39.65601         1.09396
O         39.44605        41.91931         1.37350
O         38.83824        26.45513        -0.50357
O         47.20272        38.03583        -2.93987
O         37.23788        37.85593        -2.09334
O         33.05151        31.30634         1.07244
O         34.14326        44.39952        -1.27846
O         42.86253        36.54459         0.32518
O         40.03198        28.15474         2.61577
O         47.04809        35.86914        -0.11477
O         34.21949        42.04726         1.64702
O         33.54311        32.92563        -2.04499
O         35.18862        32.50214         1.07237
O         50.63878        32.43114        -1.92574
O         48.52350        34.06225         0.54446
O         39.45330        35.33251        -2.21344
O         39.08691        29.47049        -1.75711
O         42.20308        39.37792         1.04954
O         45.78531        30.81832        -1.74437
O         49.67119        38.16543        -2.94237
O         38.49265        46.96974        -0.89725
O         34.56027        28.87168        -1.41878
O         33.27249        35.59691        -2.22922
O         46.23629        42.50900        -0.96324
O         45.04159        39.44641         0.84309
O         44.56200        29.89261         3.30472
O         34.47772        37.84116        -2.09200
O         48.09057        31.14346         3.15898
O         49.66840        35.32364        -2.83133
O         37.36418        42.18340        -1.61393
O         41.05163        46.77796         3.43016
H         40.97757        47.29786         4.25635
O         53.43015        35.55437         0.10008
H         53.78830        35.13904         0.91054
O         46.83435        33.15755        -2.51072
H         45.98489        33.13681        -3.00361
O         39.10662        33.93932         1.21377
H         38.28620        34.38130         1.52766
O         33.77739        39.50752         1.96939
H         34.36746        40.22707         2.29715
O         34.57319        41.91436        -2.02682
H         35.32539        41.81550        -2.64977
O         39.11241        30.89380         1.57723
H         39.09749        31.83437         1.87154
O         42.09693        27.31127        -0.63806
H         42.78892        27.92859        -1.00124
O         31.24144        33.85201        -2.71370
H         32.02650        34.38047        -2.99893
O         31.83117        37.96192        -1.89980
H         32.39446        37.76122        -2.68145
O         41.62654        32.70645        -3.25314
H         41.50610        31.72776        -3.11545
O         42.87354        44.77253        -0.92895
H         42.66429        43.94058        -1.41976
O         41.45575        38.53564        -2.46842
H         41.01986        37.83814        -3.00314
O         41.95215        47.68397         0.01009
H         42.03687        47.18942        -0.83449
O         40.85984        27.95300        -1.01054
H         39.24572        28.56839        -2.11133
O         50.73388        40.56789         2.32166
H         49.90009        40.24480         2.73011
O         51.62125        39.54493        -2.65318
H         51.40468        39.17097        -3.53420
O         41.46614        43.62934         2.28435
H         40.71870        43.05161         2.55817
O         47.20711        30.63170        -1.80912
H         47.48841        31.34860        -2.44005
O         52.13846        34.31237        -2.97647
H         51.60483        33.50445        -2.77715
