         658
 CSIRO Nanostructure Databank - Neutral Graphene Oxide Data Set
C          6.24112        31.56689         1.42237
C          6.23556        32.91538         1.51860
C          8.26840        27.40025        -0.45022
C          8.29253        28.79679        -0.23579
C          7.23359        29.46985         0.37411
C          8.35467        31.71593         0.11696
C          7.48584        30.80626         1.02954
C          8.66468        33.06136         0.77477
C          7.37868        33.74925         1.17831
C          8.47392        35.91844         0.91339
C          7.35407        35.10383         1.33904
C          8.56266        37.26710         1.24135
C         10.80954        23.07752        -0.20964
C         10.75461        24.50189        -0.31318
C          9.55185        25.16458        -0.45099
C         10.77183        27.36311        -0.91649
C          9.46570        26.61350        -0.74745
C         10.75897        28.86053        -1.02170
C          9.48228        29.59495        -0.65590
C         10.78786        31.71351        -0.52082
C          9.61256        31.01239        -0.30510
C         10.80223        33.17934        -0.52107
C          9.63024        33.89753        -0.06017
C         10.37375        36.23155        -0.54743
C          9.47749        35.29832         0.05950
C         10.64357        37.48137        -0.03788
C          9.67427        38.08675         0.83650
C         10.83373        40.26633         0.55108
C          9.80897        39.44518         1.14157
C         10.83431        41.62726         0.69808
C         13.16673        18.81305         0.62847
C         13.24031        20.20992         0.22100
C         12.04851        20.98146         0.25786
C         13.26731        23.11944         0.21074
C         11.99709        22.37895         0.04823
C         13.31787        24.55723        -0.16558
C         12.00495        25.28136         0.07100
C         13.30876        27.41986        -0.77495
C         12.03420        26.73411        -0.40834
C         13.24609        28.80616        -1.41875
C         12.02892        29.58814        -0.94749
C         13.28216        31.67001        -0.67889
C         12.03130        30.97214        -0.77654
C         13.30673        33.06714        -0.65043
C         12.06464        33.78897        -0.81117
C         13.32092        35.93041        -0.75315
C         12.19893        35.17903        -1.07659
C         13.24991        37.40330        -0.45604
C         11.97448        38.14410        -0.17981
C         13.23250        40.35139        -0.16279
C         11.89704        39.64876        -0.37133
C         13.21197        41.71868         0.06359
C         11.88571        42.45451        -0.00029
C         13.17055        44.58290         0.43386
C         11.97151        43.88656         0.44404
C         13.22333        46.00181         0.59725
C         15.75173        14.57310         0.50568
C         15.59862        15.91351         0.09142
C         14.43435        16.57893         0.55164
C         15.72772        18.81304        -0.80762
C         13.99312        17.84412         0.08456
C         15.70784        20.19009        -0.46991
C         14.48885        20.85681        -0.09110
C         15.81651        23.06957        -0.03253
C         14.54151        22.31015         0.16413
C         15.77520        24.49154        -0.40680
C         14.50015        25.18677        -0.47025
C         15.82211        27.31817        -0.92528
C         14.52207        26.56602        -1.11572
C         15.84953        28.78955        -1.01414
C         14.57191        29.54958        -1.19238
C         15.81773        31.69429        -0.69973
C         14.53612        30.87024        -0.43098
C         15.75869        33.04847         0.02572
C         14.53477        33.80964        -0.47001
C         15.73255        35.97321        -0.14804
C         14.51836        35.19754        -0.48264
C         15.78024        37.42038        -0.55228
C         14.48106        38.21525        -0.83822
C         15.66816        40.25768         0.09480
C         14.49432        39.62231        -0.22436
C         15.68546        41.70338         0.55014
C         14.42034        42.45880         0.25130
C         15.67750        44.57700         0.29624
C         14.43032        43.85157         0.31794
C         15.68043        45.97726         0.36344
C         14.43714        46.70798         0.53971
C         15.68004        48.84782         0.51109
C         14.47366        48.12332         0.62520
C         15.71630        50.26842         0.56549
C         18.25180        10.48333         1.59766
C         18.19214        11.76789         1.04955
C         17.00254        12.51277         0.97912
C         18.15020        14.44476        -0.05573
C         16.94827        13.82199         0.41991
C         18.07971        15.79327        -0.65802
C         16.73714        16.53911        -0.67533
C         18.12902        18.67428        -0.97457
C         16.88344        18.01816        -0.80298
C         18.11491        20.10237        -0.98213
C         16.97929        20.83635        -0.59791
C         18.22511        23.05688        -0.84494
C         17.07877        22.29509        -0.36376
C         18.22743        24.44450        -0.78276
C         16.97746        25.15727        -0.64886
C         18.26529        27.28577        -0.78937
C         17.00662        26.60312        -0.80312
C         18.27282        28.68483        -0.33144
C         17.04577        29.51234        -0.47473
C         18.25048        31.61769         0.10292
C         17.04442        30.87549        -0.34395
C         18.30102        33.12122         0.08604
C         17.07431        33.80077        -0.04077
C         18.29184        36.02581         0.20924
C         17.02200        35.25637         0.14144
C         18.26770        37.37944         0.19366
C         17.03929        38.12378        -0.19395
C         18.21409        40.26751        -0.06730
C         16.96872        39.52393         0.36110
C         18.06200        41.69106        -0.40567
C         16.89629        42.44878         0.04656
C         18.15731        44.57570        -0.06428
C         16.90725        43.83985         0.05042
C         18.14052        46.01745         0.10516
C         16.91481        46.71430         0.25535
C         18.12820        48.87396         0.15941
C         16.91537        48.13800         0.31522
C         18.13639        50.30614         0.24380
C         16.90966        50.98459         0.44481
C         18.20042        53.15420         0.72867
C         16.86151        52.49662         0.46891
C         18.23034        54.52597         1.04839
C         20.80466         6.45763         2.88017
C         20.77721         7.78182         2.40887
C         19.53828         8.45827         2.19775
C         20.72798        10.45797         1.43747
C         19.48741         9.77086         1.72256
C         20.71778        11.77394         0.92012
C         19.42188        12.30862         0.35797
C         20.59145        14.48837        -0.07368
C         19.39026        13.80441         0.13538
C         20.59433        15.77578        -0.78105
C         19.34156        16.55208        -0.86000
C         20.63973        18.60824        -1.41318
C         19.37237        17.91998        -1.10381
C         20.58854        20.06810        -1.71198
C         19.30895        20.81856        -1.48192
C         20.68910        22.98384        -1.22651
C         19.37794        22.32336        -1.39253
C         20.68078        24.43226        -1.04362
C         19.47170        25.16506        -0.97673
C         20.74396        27.31381        -1.10247
C         19.49952        26.59796        -0.92124
C         20.81350        28.74473        -0.84129
C         19.61556        29.36885        -0.19259
C         20.82800        31.61769         0.11071
C         19.54862        30.84599         0.12139
C         20.81710        33.09636         0.39850
C         19.52264        33.80685         0.32329
C         20.78538        36.03980         0.08808
C         19.55879        35.30108         0.61477
C         20.75141        37.43666        -0.03102
C         19.52441        38.19341         0.44818
C         20.65913        40.34103        -0.38950
C         19.42509        39.62228        -0.07816
C         20.63991        41.71941        -0.53120
C         19.37810        42.47510        -0.59836
C         20.64772        44.55142         0.00137
C         19.35939        43.89025        -0.25302
C         20.62649        46.04781         0.12393
C         19.34698        46.76989         0.01805
C         20.59991        48.92664        -0.40537
C         19.34658        48.16769        -0.01731
C         20.62267        50.35997         0.06993
C         19.40092        51.02908         0.27659
C         20.68153        53.10880         0.99110
C         19.39250        52.42100         0.60149
C         20.67620        54.56699         0.54475
C         19.43853        55.27109         1.06037
C         20.72517        57.37034         1.34005
C         19.49778        56.61565         1.38486
C         20.73071        58.71038         1.68334
C         23.27390         3.88140         4.01322
C         22.06228         4.48745         3.68610
C         23.26152         6.50822         2.96452
C         22.02937         5.81093         3.17176
C         23.26922         7.82932         2.42635
C         22.01709         8.47379         2.17099
C         23.19096        10.52558         1.48998
C         21.97373         9.82450         1.71795
C         23.17600        11.89366         1.06944
C         21.90984        12.49587         0.79416
C         23.13885        14.72077         0.32759
C         21.84035        13.93497         0.45706
C         23.13255        15.99140        -0.37731
C         21.92386        16.51356        -1.00745
C         23.15320        18.61885        -1.68159
C         21.85476        17.94967        -1.38536
C         23.19946        20.12822        -1.70388
C         21.89715        20.87445        -1.67928
C         23.08785        22.96837        -0.62015
C         21.86418        22.27519        -1.20914
C         23.20403        24.36640        -1.34712
C         21.89558        25.12366        -1.20392
C         23.12608        27.07250        -1.94245
C         21.89958        26.51886        -1.41125
C         23.14870        29.18578        -1.74050
C         21.94404        29.55326        -1.01132
C         23.24965        31.71488        -0.65050
C         21.95048        30.99131        -0.63953
C         23.27668        33.13344        -0.26506
C         22.12428        33.90275         0.32296
C         23.15951        36.04994        -0.45535
C         21.99378        35.33765        -0.15251
C         23.16431        37.46777        -0.49954
C         21.93547        38.17180        -0.32742
C         23.14114        40.27691        -0.63199
C         21.92195        39.60573        -0.44231
C         23.16428        41.72848        -0.92417
C         21.86967        42.49284        -0.81281
C         23.11608        44.60835        -0.32454
C         21.93463        43.92011        -0.41306
C         23.12497        46.01881         0.24531
C         21.89601        46.74823        -0.30977
C         23.15331        48.92272        -0.46925
C         21.88609        48.22353         0.08051
C         23.14584        50.35637        -0.00616
C         21.89978        51.02920         0.19734
C         23.15714        53.10377         0.62075
C         21.93568        52.40245         0.54240
C         23.17668        54.53364         0.85557
C         21.96970        55.26610         0.89187
C         23.22899        57.33466         1.17483
C         21.97971        56.66026         1.08123
C         23.26320        58.80171         1.23234
C         21.92739        59.54139         1.53793
C         23.27368        61.47548         2.27021
C         22.05137        60.84561         2.17971
C         24.47885         4.56619         3.85237
C         25.69644         6.61891         3.20212
C         24.49354         5.88349         3.32722
C         25.75309         7.90156         2.62536
C         24.51018         8.50117         2.15901
C         25.57770        10.51432         1.14255
C         24.43432         9.82692         1.61741
C         25.66039        11.93125         1.03333
C         24.40282        12.62142         0.92360
C         25.63071        14.65530         0.34655
C         24.42856        14.00335         0.51910
C         25.63941        16.13840         0.09128
C         24.43297        16.58620        -0.70784
C         25.75764        18.68407        -1.65560
C         24.45205        17.89706        -1.42556
C         25.67750        20.17150        -1.33368
C         24.43023        20.82465        -1.26640
C         25.54702        22.65734        -0.23525
C         24.35147        22.12019        -0.72076
C         25.55504        24.84711        -0.43471
C         24.38633        25.28066        -1.01115
C         25.64704        27.35687        -1.81137
C         24.38650        26.57830        -1.63323
C         25.65682        28.91838        -1.86674
C         24.42222        29.66291        -1.49267
C         25.76791        31.70836        -0.92021
C         24.53154        30.89590        -0.62794
C         25.75248        33.11101        -0.71573
C         24.45607        33.83365        -0.70892
C         25.68772        36.05471        -0.60180
C         24.42808        35.34501        -0.76722
C         25.68799        37.46372        -0.56784
C         24.40818        38.17831        -0.60561
C         25.64687        40.34008        -0.71671
C         24.37947        39.57330        -0.62956
C         25.60695        41.74618        -0.17381
C         24.45157        42.49200        -0.80551
C         25.66927        44.61560        -0.09890
C         24.42813        43.98518        -0.58393
C         25.67057        46.03811         0.38846
C         24.41004        46.78965         0.02337
C         25.65674        48.90546        -0.08692
C         24.41655        48.15309        -0.11295
C         25.63013        50.30161         0.01059
C         24.37059        51.01495         0.16656
C         25.63487        53.08396         0.67701
C         24.39097        52.40778         0.47510
C         25.65528        54.47213         0.92900
C         24.42818        55.20441         0.99907
C         25.71212        57.32764         1.25673
C         24.44224        56.62089         1.15482
C         25.71726        58.72471         1.51337
C         24.52735        59.47369         1.58206
C         24.49215        60.82897         1.95347
C         27.01214         8.59652         2.73151
C         28.29291        10.72479         2.10608
C         27.37205         9.68384         1.92781
C         28.16966        12.00645         1.45713
C         26.91891        12.59662         1.02614
C         28.15109        14.74108         0.46321
C         26.88365        14.10338         0.96273
C         28.15755        16.04212        -0.13993
C         26.93594        16.68374        -0.46939
C         28.23379        18.73395        -1.32097
C         26.92915        18.15619        -0.77995
C         28.21136        20.24783        -1.30824
C         26.88177        20.88253        -1.09363
C         28.00839        23.10376        -0.62635
C         26.82292        22.19145        -0.57845
C         27.98412        24.58956        -0.38276
C         26.86105        25.36548        -0.66729
C         28.11553        27.46516        -1.00933
C         26.98563        26.61545        -1.54913
C         28.15298        28.86515        -1.14929
C         27.02006        29.65933        -1.78686
C         28.19936        31.76272        -1.01154
C         26.96825        31.05281        -1.17538
C         28.18568        33.15422        -0.69662
C         26.94763        33.83182        -0.63641
C         28.20622        35.98906        -0.59521
C         26.92252        35.28436        -0.22788
C         28.20821        37.48395        -0.57616
C         26.90941        38.16655        -0.50665
C         28.17947        40.33913        -0.23665
C         26.95263        39.61651        -0.62565
C         28.13629        41.76016        -0.15457
C         26.91561        42.48026        -0.25089
C         28.14587        44.60403        -0.03108
C         26.88717        43.89944        -0.14078
C         28.14585        46.06594        -0.06601
C         26.93255        46.77294         0.03250
C         28.14494        48.88064        -0.17171
C         26.92095        48.18343        -0.07741
C         28.13602        50.37538        -0.37328
C         26.86863        51.03277         0.13051
C         28.14201        52.99317         1.04064
C         26.87050        52.35220         0.53517
C         28.12250        54.48867         0.91934
C         26.92709        55.18437         0.99603
C         26.90765        56.60791         1.14258
C         29.33673        12.79848         1.39385
C         30.60007        14.75968         0.57200
C         29.37063        14.09748         0.79496
C         30.63587        16.06337         0.01710
C         29.41574        16.68631        -0.36835
C         30.68921        18.83556        -0.73176
C         29.53206        17.96224        -1.16757
C         30.66165        20.26076        -0.79916
C         29.43845        20.97838        -0.96593
C         30.61058        23.21057        -0.53353
C         29.37254        22.45022        -0.85538
C         30.60012        24.55298        -0.20053
C         29.25023        25.30485         0.05452
C         30.18684        27.63458         0.13971
C         29.16905        26.79986        -0.32983
C         30.46806        28.91208        -0.33952
C         29.35687        29.59292        -0.89258
C         30.65773        31.70253        -0.62033
C         29.42401        31.03399        -0.95583
C         30.64488        33.13888        -0.47130
C         29.44001        33.85432        -0.46771
C         30.64753        36.02167        -0.05795
C         29.45258        35.27460        -0.31066
C         30.61374        37.48831         0.10504
C         29.43793        38.20005        -0.17001
C         30.60298        40.33715         0.24993
C         29.38812        39.62732        -0.02972
C         30.58716        41.76733         0.20253
C         29.36682        42.47479         0.03632
C         30.61078        44.68714         0.29531
C         29.34143        43.90403         0.05248
C         30.62039        45.98819        -0.49894
C         29.35879        46.77174        -0.23028
C         30.64425        48.90214        -0.21295
C         29.36768        48.17778        -0.23110
C         30.63965        50.27404        -0.04088
C         29.41373        51.03337         0.09633
C         29.40293        52.30800         0.57912
C         31.87098        16.76419        -0.12984
C         33.11388        18.89356        -0.38593
C         31.90592        18.15489        -0.43113
C         33.13348        20.29397        -0.56822
C         31.89358        20.98590        -0.71953
C         33.20524        23.14445        -0.65736
C         31.87994        22.45742        -0.79391
C         33.18811        24.44350         0.08675
C         31.88990        25.21317        -0.00092
C         33.20117        27.34300         0.19033
C         32.04869        26.51530         0.42047
C         33.11288        28.75471         0.06821
C         31.87456        29.46814        -0.53592
C         33.05502        31.66521         0.05436
C         31.84003        30.97049        -0.39456
C         33.07235        33.15561         0.15434
C         31.93400        33.91528        -0.48408
C         33.14213        36.14077         0.05203
C         31.85672        35.34558        -0.01586
C         32.98958        37.35045         0.99896
C         31.79931        38.19421         0.51140
C         33.04771        40.34857         0.81139
C         31.79671        39.59155         0.53618
C         33.08402        41.80494         0.47053
C         31.82223        42.51404         0.19009
C         33.11385        44.59597        -0.09128
C         31.86287        43.88640         0.06514
C         33.11321        45.98571        -0.19987
C         31.90079        46.75923        -0.25458
C         31.87320        48.13804        -0.20670
C         34.39286        20.98870        -0.50774
C         35.66985        23.11853        -0.34580
C         34.47131        22.37999        -0.49430
C         35.68294        24.54524        -0.23020
C         34.45279        25.24373        -0.09636
C         35.66138        27.38532         0.01323
C         34.44379        26.64994         0.02663
C         35.59075        28.78801         0.13561
C         34.34517        29.45610         0.08617
C         35.60881        31.70823         0.13725
C         34.35127        30.93300        -0.05881
C         35.56065        33.18175         0.30825
C         34.35470        33.89648         0.24971
C         35.56487        35.94565         0.68091
C         34.35981        35.30002         0.36299
C         35.63900        37.38499         1.09197
C         34.31763        38.12356         1.17511
C         35.65541        40.38363         0.70667
C         34.35106        39.60721         0.97949
C         35.47022        41.51167        -0.32545
C         34.33865        42.45611         0.03451
C         34.33097        43.79711        -0.21115
C         36.90475        25.29777        -0.20763
C         38.14066        27.47312        -0.06497
C         36.91881        26.68766        -0.07562
C         38.14343        28.82923         0.18104
C         36.85036        29.50941         0.44785
C         38.14915        31.77584         0.75182
C         36.83841        30.99168         0.62061
C         38.04842        33.14909         0.06433
C         36.77830        33.86113         0.42729
C         38.01354        35.84447         1.31629
C         36.76675        35.22147         0.73820
C         37.73091        37.35203         1.49940
C         36.83369        38.13286         0.54569
C         36.85207        39.47977         0.41413
C         39.33354        29.65209         0.05383
C         40.52480        31.83677        -0.02132
C         39.34942        31.01866         0.21209
C         40.51561        33.20500         0.03807
C         39.30077        33.96374         0.30069
C         39.27105        35.27289         0.68367
O         31.02391        27.13282         1.13574
O         17.18641        15.80372        -1.84142
O         32.61181        23.05717        -1.96757
O         16.76468        22.71111         1.02422
O         19.01145        21.66585        -2.65460
O         10.17657        26.76334        -2.08191
O         18.53706        42.08453        -1.73174
O         26.64262         9.76634         0.70036
O         24.57391        16.64154        -2.17586
O         20.70032        45.22104         1.31705
O         32.99041        41.35148         1.89039
O         36.66698        30.14394         1.79913
O         16.74790        37.81093        -1.59830
O         13.94408        22.73368         1.44826
O         22.42920        42.12463        -2.12056
O         28.60345        23.01182        -1.98758
O         12.84757        37.70503         0.92998
O         34.32151        39.00671         2.33279
O         11.10691        35.81626        -1.66160
O         23.30309        19.35426        -2.94161
O         22.38972        31.71449        -1.86977
O         36.48989        37.32468         2.37276
O         18.80429        31.08664         1.34545
O         28.27780        36.70575        -1.86342
O         22.34208        14.76730         1.59054
O         25.63445        28.10014        -3.07558
O         12.80311        27.51248         0.58242
O         32.80846        32.37441         1.35512
O         22.50976        59.46614         0.18559
O         24.69289        43.35871        -1.92228
O         16.10743        35.70601         1.25985
O         26.39542        40.14063        -1.93421
O         21.19532        20.57681        -2.92567
O         28.23189        19.45509        -2.56720
O         21.33888        15.64205        -2.05153
O         14.54274        18.19812        -1.17248
O         15.44200        29.42175        -2.34892
O         21.08293        32.07957         1.47422
O         19.03236        28.66235         0.94182
O          9.85141        29.34561        -2.06082
O         25.46852        23.82383         0.52745
O         35.18219        31.33333        -1.22732
O         24.28254        34.56574        -2.02673
O         22.99026        28.21305        -2.73580
O         28.11382        52.74359         2.50666
H         28.10876        51.77074         2.63469
O         11.88879        25.33166         1.52236
H         12.53634        26.00217         1.84055
O         15.52884        32.83810         1.45563
H         15.55338        33.73346         1.87050
O         17.01068        39.31316         1.79914
H         16.84488        40.18973         2.22764
O         23.39952        24.09322        -2.75928
H         22.62252        23.59329        -3.09105
O         15.87939        52.96121         1.40343
H         16.15248        52.67881         2.30011
O         19.64673        35.43248         2.07973
H         18.89744        34.93099         2.46775
O         26.80675        18.81208         0.53227
H         26.26527        18.22074         1.12308
O         21.88864        48.35175         1.51373
H         22.22550        47.50264         1.90357
O         11.46209        39.83499        -1.73545
H         11.35363        40.80976        -1.88240
O         26.05974        18.49418        -3.04327
H         25.23391        18.66554        -3.54898
O          8.20562        30.46539         2.24644
H          8.67065        31.28064         2.55844
O         30.62330        45.06500         1.70416
H         30.77672        44.25438         2.23400
O         28.11160        50.57766        -1.82975
H         27.28834        50.16626        -2.16929
O         26.94713        35.28382         1.24773
H         26.14303        34.82368         1.57070
O          7.59088        32.00835        -1.07595
H          7.55634        31.19812        -1.62721
O         25.68072        45.94587         1.89390
H         26.00792        46.80761         2.23278
O         21.95226        46.64272        -1.75430
H         21.21000        47.19663        -2.11216
O         19.37137        11.75437        -1.00524
H         18.55796        12.09675        -1.43419
O         29.11313        25.26158         1.51444
H         29.82315        25.84140         1.88105
O         15.89126        32.03637        -2.09942
H         15.90032        31.18861        -2.60888
O         26.79887        14.57218         2.42324
H         26.12291        14.00472         2.85606
O         20.55723        48.93866        -1.86800
H         21.38520        49.38898        -2.17828
O         33.22377        23.99911         1.50189
H         33.34872        24.79290         2.06491
O         14.38701        38.40505        -2.26293
H         15.30239        38.54864        -2.59946
O          9.39602        32.80403         2.02135
H          9.52651        33.66475         2.47315
O         11.49575        42.53480        -1.43192
H         12.19747        43.04124        -1.89456
O         27.43034        29.91636        -3.16098
H         27.00819        29.22581        -3.72303
O         14.51094        30.44365         0.95219
H         14.70275        31.23319         1.51589
O         27.41448        26.09806        -2.83310
H         27.00391        26.65178        -3.53384
O         20.72218        53.12130         2.45230
H         20.79314        52.19251         2.75807
O         38.10609        35.35499         2.68984
H         37.33982        35.74237         3.17344
O         25.45564        16.73564         1.43843
H         25.98358        16.15855         2.05835
O         13.07110        28.60455        -2.84163
H         13.13162        29.47196        -3.29391
O         32.34499        34.02568        -1.91219
H         31.55690        34.31619        -2.42144
O         20.58687        54.55935        -0.90781
H         20.60076        55.48952        -1.21652
O         35.12932        40.88980        -1.57338
H         35.03811        41.58402        -2.25767
O         37.99126        32.91809        -1.37161
H         37.10629        32.56225        -1.60550
O         38.38692        32.02050         2.14930
H         38.04640        31.23686         2.63917
O         14.41187        26.27170        -2.54299
H         14.17627        27.11216        -3.00910
O         36.02264        41.03836         1.93709
H         35.75855        40.43609         2.66979
O         33.36476        36.68950        -1.28026
H         33.32328        35.93082        -1.90795
O         22.79825        23.20060         0.77372
H         23.61774        23.56320         1.18372
O         30.60580        45.61948        -1.90609
H         30.58357        46.44359        -2.43580
O         29.91880        17.51875        -2.51332
H         29.55683        18.18711        -3.14262
O         32.11382        29.19650        -1.97322
H         31.45294        29.70756        -2.48904
O         32.64208        36.83024         2.29507
H         32.84072        37.53387         2.95219
O         15.78808        41.69165         2.03646
H         14.92151        41.38582         2.38191
O         19.69155        38.30685         1.89060
H         19.70032        37.38471         2.24942
O         23.00969        45.93383         1.69615
H         23.92526        45.78879         2.05505
O         23.15062        48.97700        -1.92861
H         23.14023        48.03876        -2.24456
O         22.57971        34.09573         1.71618
H         22.27879        33.29893         2.21712
O         25.26481        41.59766         1.24376
H         25.45797        42.44607         1.69720
O         24.65104        30.49580         0.77954
H         25.56598        30.18152         0.93849
H          5.34294        30.99456         1.70121
H          5.32334        33.43559         1.85171
H          7.39289        26.84669        -0.07633
H          6.32632        28.90805         0.64801
H          6.46230        35.60253         1.74864
H          7.77467        37.71611         1.86461
H          9.87480        22.50979        -0.33812
H          8.62183        24.57748        -0.51958
H          9.05605        39.93549         1.77835
H         10.06218        42.12976         1.30102
H         12.48806        18.56472         1.45785
H         11.09685        20.43966         0.36749
H         11.02748        44.43661         0.57783
H         12.28137        46.55693         0.72055
H         14.89430        14.09621         1.00486
H         13.83911        16.07021         1.32579
H         13.52973        48.67238         0.76161
H         14.77899        50.82369         0.71900
H         17.33021        10.01049         1.97099
H         16.08226        12.09097         1.41182
H         16.50938        52.84018        -0.54545
H         17.27777        55.03960         1.25073
H         19.85798         5.92506         3.05454
H         18.60265         7.92567         2.42345
H         18.58018        57.13996         1.69497
H         19.80571        59.17962         2.05229
H         23.27944         2.85794         4.41366
H         21.11690         3.94517         3.83070
H         23.32056        62.48764         2.69763
H         21.15556        61.30598         2.62126
H         25.42839         4.08773         4.13183
H         26.63013         6.16368         3.56520
H         26.68057        59.23171         1.67499
H         25.43896        61.35718         2.13579
H         27.70003         8.26916         3.52497
H         29.12734        10.59329         2.81063
H         29.07680        55.03635         0.95084
H         27.86642        57.14347         1.21223
H         30.28616        12.36266         1.73975
H         31.54112        14.26472         0.85474
H         31.59498        50.80335         0.10094
H         30.35567        52.77792         0.87373
H         32.80928        16.24965         0.12433
H         34.05948        18.36449        -0.19430
H         34.07586        46.51934        -0.24724
H         32.81803        48.69315        -0.09125
H         35.30753        20.38918        -0.38500
H         36.62871        22.57819        -0.33089
H         36.43485        42.07999        -0.43195
H         35.25249        44.30071        -0.54541
H         37.85822        24.75425        -0.29029
H         39.09119        26.95930        -0.27603
H         38.56438        37.91552         1.97903
H         37.82562        39.99856         0.40764
H         40.25767        29.14341        -0.26615
H         41.47206        31.31760        -0.23764
H         41.46307        33.75386        -0.08024
H         40.22016        35.81350         0.83520
