         344
 CSIRO Nanostructure Databank - Neutral Graphene Oxide Data Set
C          1.34606         3.58335        -0.03473
C          0.19223         4.30142        -0.36165
C          1.27501         6.38375         0.29552
C          0.14763         5.68188        -0.17867
C          1.24651         7.83114         0.53182
C          0.05001         8.55408         0.54714
C          1.23329        10.67152         0.84807
C          0.04134         9.93946         0.74020
C          1.22892        12.11293         1.08439
C          0.08561        12.87946         1.13587
C          1.26062        15.03491         1.30153
C          0.10371        14.30802         1.27942
C          1.32746        16.53777         1.53182
C          0.03442        17.27491         1.33165
C          1.19873        19.31457         0.62496
C          0.00360        18.57823         0.95952
C          1.17188        20.71195         0.33339
C         -0.03856        21.47045         0.36876
C          1.15681        23.54780        -0.11194
C         -0.04685        22.82393         0.12677
C          1.15249        24.98732        -0.29276
C         -0.04674        25.74082        -0.36896
C          1.19470        27.82990        -0.57238
C         -0.02700        27.11834        -0.51671
C          1.22973        29.26032        -0.70695
C          3.68167         3.50389         0.94251
C          2.48059         4.26191         0.43074
C          3.69211         6.36365         1.08040
C          2.46251         5.66194         0.54933
C          3.71536         7.83471         0.75195
C          2.47954         8.54135         0.69760
C          3.73122        10.66734         0.74083
C          2.47646         9.96743         0.77000
C          3.76548        12.08796         0.87504
C          2.53190        12.77353         1.27893
C          3.75974        14.97449         0.83570
C          2.54817        14.31367         1.33241
C          3.50503        16.31195         0.15613
C          2.47387        17.20249         0.80597
C          3.60725        19.27848         0.06186
C          2.42979        18.57680         0.50587
C          3.60751        20.66027        -0.10573
C          2.38406        21.40538         0.02545
C          3.63069        23.53298        -0.27427
C          2.37803        22.82422        -0.14128
C          3.62723        24.95872        -0.33678
C          2.39246        25.68299        -0.37682
C          3.66138        27.81691        -0.51910
C          2.41616        27.10726        -0.49151
C          3.67487        29.25086        -0.64925
C          2.41500        29.94080        -0.74850
C          6.13047         3.50752         0.37719
C          4.97741         4.22227         0.66950
C          6.15263         6.36924         0.51861
C          4.97370         5.65111         0.71121
C          6.17185         7.79290         0.47903
C          4.93311         8.51957         0.61751
C          6.18355        10.66804         0.46546
C          4.94531         9.95490         0.58418
C          6.18772        12.09377         0.46762
C          4.96273        12.80988         0.72490
C          6.21850        15.02306         0.48395
C          4.92667        14.25920         0.65542
C          6.07448        16.30082        -0.31646
C          4.78016        17.04038        -0.26539
C          5.91801        19.19440        -0.94455
C          4.92267        18.53509         0.01415
C          6.02732        20.68187        -0.61626
C          4.86705        21.37024        -0.35428
C          6.08406        23.54397        -0.29044
C          4.85694        22.82784        -0.31380
C          6.06797        24.95235        -0.20427
C          4.85887        25.67188        -0.32401
C          6.12035        27.82762        -0.41718
C          4.87957        27.11259        -0.40426
C          6.13241        29.25905        -0.55551
C          4.88969        29.94222        -0.67308
C          8.55278         3.48458        -0.08714
C          7.38383         4.16181         0.20354
C          8.51056         6.33212        -0.33013
C          7.47429         5.63631         0.53885
C          8.59601         7.80808        -0.01553
C          7.39353         8.50517         0.25662
C          8.63112        10.65173         0.14082
C          7.40577         9.94724         0.29469
C          8.62279        12.06670         0.10466
C          7.41802        12.78250         0.22519
C          8.55282        14.90530        -0.34429
C          7.42906        14.22677         0.06966
C          8.53497        16.34572        -0.54818
C          7.33478        17.04445        -0.54672
C          8.59740        19.20912        -0.89702
C          7.25708        18.44380        -0.97083
C          8.54065        20.62326        -0.57275
C          7.31588        21.42126        -0.91292
C          8.53613        23.48084        -0.13488
C          7.34834        22.83135        -0.35531
C          8.60546        24.93199         0.11956
C          7.30858        25.70057         0.04013
C          8.58219        27.81198        -0.29896
C          7.34655        27.13964        -0.26241
C          8.59613        29.24883        -0.40841
C          7.36951        29.94023        -0.53041
C         11.02638         3.44785        -0.18910
C          9.81462         4.16671        -0.22073
C         11.02894         6.31281        -0.37238
C          9.82900         5.59860        -0.29026
C         11.03536         7.72241        -0.26706
C          9.83323         8.47837        -0.12483
C         11.05870        10.62895        -0.34468
C          9.87507         9.93287        -0.06386
C         11.12302        12.05551        -0.37198
C          9.91965        12.85083         0.08309
C         11.08266        14.92882        -0.69236
C          9.79235        14.12966        -0.74679
C         11.05927        16.31188        -0.63734
C          9.79835        17.05599        -0.62498
C         11.07777        19.17194        -0.23504
C          9.81235        18.43454        -0.60463
C         11.03807        20.59514        -0.79393
C          9.80383        21.27744        -0.25335
C         11.07913        23.49939        -0.36386
C          9.83137        22.77238        -0.08840
C         11.04524        24.91689        -0.39035
C          9.86756        25.64077        -0.18062
C         11.03278        27.80821        -0.29646
C          9.83275        27.09116        -0.25370
C         11.05561        29.23813        -0.23783
C          9.83990        29.93562        -0.33365
C         13.48775         3.42192        -0.13667
C         12.28372         4.09491        -0.29241
C         13.54149         6.25093        -0.13604
C         12.30271         5.55360        -0.70609
C         13.53405         7.70519        -0.46523
C         12.32485         8.48576        -0.04869
C         13.55039        10.59202        -0.64971
C         12.27079         9.82937        -0.77684
C         13.53235        12.00283        -0.99372
C         12.28407        12.74858        -0.72141
C         13.54374        14.87150        -1.01838
C         12.33159        14.19429        -0.80339
C         13.50716        16.33617        -1.17008
C         12.29141        17.06220        -0.77204
C         13.54243        19.20048        -0.72429
C         12.32018        18.44195        -0.67446
C         13.52019        20.64028        -0.56205
C         12.31496        21.36025        -0.55036
C         13.56729        23.49921        -0.53479
C         12.30267        22.78240        -0.49609
C         13.59189        24.91112        -0.54377
C         12.29335        25.66331        -0.80924
C         13.56750        27.82829        -0.51459
C         12.31306        27.03616        -0.10984
C         13.53668        29.27409        -0.05553
C         12.30906        29.92574        -0.03365
C         15.95386         3.35111        -0.30688
C         14.77419         4.06816        -0.29584
C         16.01414         6.17736        -0.66614
C         14.80655         5.50948        -0.47597
C         16.05255         7.63650        -0.89208
C         14.73036         8.41405        -0.84661
C         16.09282        10.55780        -0.77679
C         14.81772         9.86246        -0.37970
C         16.11857        11.99624        -0.93042
C         14.83968        12.73016        -1.16476
C         16.03862        14.89970        -1.10122
C         14.84286        14.21812        -1.07312
C         16.14887        16.40642        -1.29680
C         14.80684        17.12343        -1.22477
C         15.99590        19.21259        -0.50516
C         14.77518        18.53558        -0.82610
C         15.99624        20.60675        -0.36015
C         14.76706        21.34956        -0.48663
C         16.11023        23.44971        -0.66092
C         14.78207        22.75187        -0.49791
C         16.03828        24.91863        -0.33125
C         14.84056        25.61122        -0.38110
C         16.09438        27.87446        -0.44340
C         14.83370        27.09801        -0.00982
C         16.02221        29.28918         0.11508
C         14.77191        29.93421         0.17722
C         18.46712         3.35560        -0.02784
C         17.26802         3.98869        -0.67784
C         18.44388         6.21325        -0.30641
C         17.25779         5.49050        -0.53599
C         18.46143         7.66280        -0.33273
C         17.28389         8.37672        -0.61191
C         18.54412        10.48937        -0.59388
C         17.28678         9.81196        -0.70522
C         18.62967        11.98487        -0.81615
C         17.30218        12.68784        -0.93583
C         18.39459        14.84577        -0.21226
C         17.37833        14.18338        -1.15763
C         18.34115        16.26453        -0.00161
C         17.22533        17.04904        -0.44290
C         18.30486        19.10965         0.38558
C         17.18768        18.43142        -0.21855
C         18.31733        20.53778         0.49929
C         17.19662        21.31097         0.03796
C         18.36391        23.40148         0.58232
C         17.23466        22.71004         0.03833
C         18.40458        24.83064         0.63599
C         17.31531        25.60451        -0.02429
C         18.32445        27.78073         0.88618
C         17.33993        27.09456        -0.00147
C         18.40402        29.25695         0.79682
C         17.20455        29.95324         0.48089
C         19.57782         4.07134         0.25020
C         20.81055         6.23029         0.31249
C         19.63973         5.50935         0.05743
C         20.84733         7.62676         0.20561
C         19.69571         8.36875        -0.11121
C         20.90165        10.60798         0.03998
C         19.70216         9.81024        -0.24468
C         20.80741        11.91976         0.33176
C         19.44008        12.58294         0.34767
C         20.42728        14.75442         1.12332
C         19.43740        14.10086         0.35108
C         20.43229        16.12557         1.26832
C         19.39901        16.91487         0.71008
C         20.51868        19.04401         1.41093
C         19.41109        18.35194         0.84354
C         20.53959        20.41689         1.49684
C         19.44646        21.20507         1.03857
C         20.56616        23.35067         1.64747
C         19.46327        22.64818         1.10309
C         20.58789        24.73157         1.69130
C         19.51271        25.49643         1.18162
C         20.73159        27.74948         1.62441
C         19.50124        26.97978         1.38759
C         20.72631        29.11872         1.57576
C         19.57551        29.88006         1.21619
O         17.93497        26.40760        -1.15327
O          9.93823        21.86140         1.08068
O          7.97880        18.77880        -2.19951
O         18.35792        27.32614         2.27422
O         15.36506         8.10175        -2.11407
O          5.24332        16.45137        -1.52470
O         14.13118        12.27672        -2.37373
O          7.93482        25.38202         1.34628
O         14.04727        16.84880        -2.45704
O          2.71053        13.50370         2.53586
O         16.43917        23.36704        -2.10142
H         15.70554        23.79623        -2.59113
O         12.38372         8.76706         1.38278
H         12.53537         7.89720         1.82378
O         12.44002         5.58986        -2.14912
H         11.68811         5.09751        -2.53885
O         16.16966        28.01549        -1.88069
H         16.82937        27.33884        -2.18632
O         10.84781        20.51640        -2.22929
H         11.62794        20.06872        -2.61998
O          7.36646        21.59278        -2.38384
H          7.60241        20.71149        -2.76020
O         13.39632         6.15976         1.33525
H         14.26364         6.39186         1.73157
O         12.34868        26.73505         1.32106
H         11.95569        27.49198         1.80461
O          8.02946         6.24112        -1.70973
H          8.64416         6.75458        -2.27526
O          3.54442         3.40622         2.38577
H          2.65756         3.03608         2.57786
O         10.17492        13.27077         1.45624
H         10.24854        12.46350         2.00748
O          6.52538        15.54207         1.82819
H          6.67009        14.77182         2.41790
O          5.52506        18.63238         1.33423
H          4.91909        18.22875         1.99069
O         18.76114        12.18920         1.57655
H         19.30120        12.50315         2.33152
O         16.60493        16.61958        -2.68099
H         15.79538        16.54394        -3.24161
O          9.61339        13.71260        -2.12695
H          9.53698        14.51648        -2.68228
O          2.81450        15.89369        -1.07478
H          3.50729        15.84981        -1.77813
O         12.15384        25.76905        -2.24764
H         12.73290        26.51489        -2.54828
O          3.61087         6.27399         2.54817
H          3.61046         5.30791         2.76531
O          7.95390         5.72250         1.91221
H          7.27164         5.32511         2.49310
O         14.93485         9.69747         1.09949
H         14.77632        10.57233         1.51378
O         13.57586        27.90028        -1.96291
H         14.49114        28.16509        -2.24368
O         17.92134        14.35361        -2.50702
H         17.68108        15.27196        -2.80717
O         12.10035         9.50792        -2.19582
H         12.33245        10.30638        -2.71767
O         19.38203        12.17251        -2.03987
H         19.03870        12.98114        -2.49418
O         17.41250         3.71961        -2.13195
H         16.68493         4.19859        -2.58458
O          5.35109        19.10314        -2.26850
H          6.09271        19.14294        -2.91169
O         14.90316        27.15976         1.43053
H         14.07016        26.75825         1.78273
O         11.12830        19.28130         1.21223
H         11.06919        18.37999         1.59145
O          1.63915        16.66092         2.97994
H          1.51820        17.60347         3.22346
H          1.36752         2.48860        -0.14049
H         -0.69251         3.77120        -0.74033
H         -0.77966         6.22121        -0.41534
H         -0.91143         8.03440         0.43431
H         -0.92749        10.45406         0.79430
H         -0.89943        12.40428         1.02666
H         -0.87185        14.81315         1.31593
H         -0.90469        16.77604         1.61064
H         -0.96990        19.08514         0.90258
H         -0.99227        20.97067         0.58388
H         -1.00718        23.35603         0.15637
H         -1.01920        25.23231        -0.32201
H         -0.97400        27.67367        -0.58264
H          0.27616        29.80434        -0.77664
H          3.70730         2.46444         0.51126
H          2.42244        31.03583        -0.85218
H          6.07846         2.41273         0.26920
H          4.88771        31.03802        -0.77370
H          8.53847         2.38725        -0.18125
H          7.37861        31.03826        -0.60237
H         10.99806         2.36129        -0.01364
H          9.84497        31.03585        -0.33872
H         13.47600         2.34131         0.07534
H         12.27636        31.00971         0.15815
H         15.92400         2.25392        -0.21897
H         14.74541        30.98774         0.50007
H         18.44850         2.26809         0.13834
H         17.16604        31.03694         0.67627
H         20.46652         3.57396         0.66862
H         21.72372         5.68817         0.59893
H         21.80001         8.14207         0.38860
H         21.88424        10.11406         0.05846
H         21.71142        12.49221         0.58728
H         21.21896        14.16383         1.60554
H         21.23573        16.59253         1.85221
H         21.39293        18.48483         1.76895
H         21.42761        20.90088         1.92408
H         21.42295        22.80102         2.05847
H         21.45239        25.23779         2.14168
H         21.67683        27.21876         1.80565
H         21.65822        29.66235         1.78955
H         19.64082        30.97746         1.21078
