         430
 CSIRO Nanostructure Databank - Neutral Graphene Oxide Data Set
C         27.91778        27.52414        -0.86223
C         27.90026        28.90082        -0.53569
C         26.66942        29.60515        -0.38381
C         27.87776        31.67792         0.07400
C         26.66329        30.94505        -0.08727
C         27.86557        33.08841         0.37914
C         26.65413        33.80547         0.54952
C         27.85855        35.88333         0.97378
C         26.64937        35.15829         0.81955
C         27.84950        37.34380         1.10115
C         26.63535        38.06567         1.11492
C         27.83289        40.17633         0.96284
C         26.63695        39.45469         1.07556
C         27.76021        41.67733         0.92150
C         26.82801        42.14144        -0.17078
C         27.94153        44.30560        -0.34917
C         26.89930        43.40303        -0.69220
C         27.97191        45.64385        -0.76535
C         30.35067        27.51820        -0.82656
C         29.12320        26.85668        -1.01866
C         30.36398        28.89758        -0.51131
C         29.12906        29.60281        -0.37030
C         30.35907        31.71795         0.06827
C         29.11808        31.00268        -0.07041
C         30.35163        33.10025         0.37239
C         29.09453        33.79072         0.53347
C         30.34326        35.85623         1.15231
C         29.07203        35.17343         0.86513
C         30.33950        37.37697         1.26696
C         29.06066        38.07544         1.09115
C         30.32443        40.21496         0.91818
C         29.07273        39.49151         0.97531
C         30.30487        41.64922         0.77437
C         29.09774        42.34276         0.73173
C         30.34767        44.49473         0.27878
C         29.03741        43.83632         0.58746
C         30.32943        45.85804        -0.09798
C         29.09770        46.43468        -0.54934
C         32.81427        24.67355        -0.64095
C         31.65819        25.34478        -0.63942
C         32.87208        27.49433        -0.63241
C         31.63496        26.77603        -1.12147
C         32.82059        28.86445        -0.34748
C         31.60990        29.60519        -0.34364
C         32.82328        31.74200         0.02610
C         31.60861        31.02238        -0.09506
C         32.83325        33.12644         0.33667
C         31.59284        33.81547         0.49917
C         32.81730        35.93208         0.85411
C         31.61005        35.19840         0.81174
C         32.81136        37.37557         0.97086
C         31.60008        38.09827         1.04232
C         32.81356        40.23992         0.94050
C         31.57093        39.52041         0.95087
C         32.79932        41.68686         0.80477
C         31.56698        42.37059         0.67660
C         32.79091        44.50934         0.33500
C         31.56019        43.78977         0.44516
C         32.76717        45.91581         0.13568
C         31.56656        46.58769        -0.11151
C         32.75893        48.66593        -0.63739
C         31.60384        48.02061        -0.38622
C         35.42557        23.23636        -1.37305
C         35.31758        24.54750        -0.64070
C         34.09157        25.34259        -1.10980
C         35.30578        27.38153        -0.21552
C         34.11222        26.78655        -0.62168
C         35.29707        28.79609         0.31778
C         34.11727        29.56474        -0.23236
C         35.35589        31.73131         0.28921
C         34.11439        31.05308        -0.12412
C         35.32515        33.12106         0.48285
C         34.07002        33.83686         0.50009
C         35.30050        35.96611         0.80804
C         34.06194        35.23811         0.71288
C         35.29903        37.37949         0.92071
C         34.04886        38.09501         0.95125
C         35.30222        40.22773         1.19491
C         34.02504        39.51361         1.01317
C         35.30717        41.75150         1.00818
C         34.02500        42.42256         0.70552
C         35.27773        44.53354         0.30724
C         34.03225        43.80312         0.44378
C         35.29254        45.90936         0.23445
C         34.02755        46.73433         0.31738
C         35.28190        48.79813        -0.36430
C         34.07554        47.92229        -0.66148
C         35.35466        50.12788        -0.68497
C         37.88064        23.26857        -1.35181
C         36.60973        22.63344        -1.62639
C         37.85312        24.77549        -1.25470
C         36.59450        25.35739        -0.66915
C         37.81391        27.37130         0.18985
C         36.55827        26.67967        -0.29639
C         37.80089        28.88086         0.11161
C         36.59670        29.56395         0.16386
C         37.79961        31.69091         0.54369
C         36.57999        30.99764         0.31562
C         37.78157        33.11257         0.71502
C         36.55438        33.82965         0.66721
C         37.77217        35.95033         0.91541
C         36.54150        35.25131         0.78807
C         37.77825        37.37945         0.96867
C         36.55131        38.08892         0.95150
C         37.78043        40.23546         0.90826
C         36.57230        39.51671         1.00630
C         37.77495        41.67921         0.74199
C         36.57590        42.37582         0.64618
C         37.77070        44.54094         0.68572
C         36.57965        43.78498         0.09535
C         37.76385        46.00187         0.29107
C         36.53638        46.64457         0.19144
C         37.80645        48.88612         0.11439
C         36.47631        48.11920         0.16118
C         37.79118        50.28189        -0.36014
C         36.57799        50.87079        -0.64597
C         40.38690        20.55904        -1.97132
C         39.16627        21.20195        -1.78178
C         40.39586        23.26429        -1.08437
C         39.08764        22.59332        -1.47319
C         40.35556        24.77177        -0.97270
C         39.11910        25.42530        -0.75377
C         40.31087        27.46733        -0.13912
C         39.09504        26.75264        -0.31756
C         40.29154        28.86404         0.21316
C         39.04792        29.57454         0.26714
C         40.27316        31.63575         0.82395
C         39.04550        30.96994         0.54743
C         40.23807        33.05708         1.33755
C         38.99506        33.82631         0.95672
C         40.24131        35.94284         1.44630
C         38.99078        35.21232         1.02455
C         40.25361        37.39833         1.04483
C         39.02724        38.09988         0.96882
C         40.25592        40.22015         0.66322
C         39.02290        39.52300         0.84156
C         40.26214        41.65223         0.48945
C         39.04002        42.37574         0.54195
C         40.25631        44.47125         0.16720
C         39.06159        43.79117         0.41841
C         40.22232        45.91848        -0.13982
C         38.99854        46.70763         0.11904
C         40.28149        48.82320        -0.14655
C         39.04288        48.09868        -0.01639
C         40.26575        50.25145        -0.20906
C         39.07028        50.97841        -0.41405
C         40.35402        53.05220        -0.74512
C         39.13450        52.37762        -0.66332
C         42.85437        20.60725        -2.04087
C         41.60411        21.26364        -1.97363
C         42.85773        23.42008        -1.56323
C         41.55546        22.77297        -1.96957
C         42.83147        24.92253        -1.44107
C         41.55470        25.48127        -0.85427
C         42.79291        27.52387        -0.13878
C         41.55297        26.83688        -0.42771
C         42.75627        28.82336         0.37578
C         41.51583        29.53870         0.45041
C         42.74894        31.66138         0.92862
C         41.49692        30.94688         0.76239
C         42.74454        33.08259         1.00765
C         41.51297        33.81399         1.06006
C         42.72606        35.93281         0.99260
C         41.50228        35.20004         1.07620
C         42.72377        37.35944         0.88999
C         41.47676        38.07909         0.86878
C         42.71401        40.19240         0.43811
C         41.47696        39.49756         0.64751
C         42.71804        41.60435         0.24509
C         41.49234        42.34223         0.27933
C         42.73955        44.46516        -0.05960
C         41.50428        43.76925         0.09599
C         42.79784        45.91463        -0.09723
C         41.53233        46.66903        -0.26942
C         42.75571        48.83462        -0.08068
C         41.51889        48.13002        -0.09958
C         42.79952        50.22037        -0.16962
C         41.53855        51.00520         0.07377
C         42.81968        53.05248        -0.58739
C         41.56600        52.39864        -0.48804
C         44.03432        21.29806        -1.86016
C         45.30076        23.39789        -1.25084
C         44.04220        22.71021        -1.55724
C         45.29024        24.77515        -0.97138
C         44.07472        25.51819        -0.83617
C         45.30484        27.47742         0.02893
C         44.05532        26.81022        -0.30950
C         45.28798        28.82936         0.56962
C         43.97651        29.43280         1.03615
C         45.18905        31.63361         1.19402
C         43.98854        30.95408         0.99629
C         45.22419        33.07704         1.20772
C         43.97337        33.80601         1.09922
C         45.17898        35.99813         1.25025
C         43.94747        35.21593         1.08597
C         45.19897        37.39535         0.80915
C         43.95346        38.06493         0.70086
C         45.17717        40.14700         0.21058
C         43.94478        39.47349         0.45155
C         45.15046        41.54085        -0.04904
C         43.95603        42.27316        -0.00252
C         45.19264        44.40402        -0.15101
C         43.98068        43.73218        -0.10851
C         45.28651        45.86691         0.17911
C         43.98665        46.59651        -0.00900
C         45.16018        48.69872        -0.74546
C         44.05874        48.09644         0.13780
C         45.24028        50.20544        -0.56576
C         44.05034        50.92878        -0.36079
C         44.00983        52.36382        -0.46891
C         47.67428        23.21041        -0.62776
C         46.49579        22.64008        -1.02273
C         47.84738        24.65452        -0.64924
C         46.55375        25.49182        -0.77753
C         47.82716        27.56722        -0.10799
C         46.51292        26.84847        -0.22654
C         47.74658        28.88762         0.60599
C         46.47177        29.49575         0.84045
C         47.73001        31.59320         1.53250
C         46.41432        30.81423         1.58473
C         47.72200        33.08410         1.37888
C         46.43303        33.77616         1.25055
C         47.71453        35.93530         0.87650
C         46.49430        35.23855         1.31827
C         47.68877        37.31826         0.60405
C         46.43699        38.05574         0.58411
C         47.66847        40.12980        -0.00758
C         46.42877        39.43731         0.24373
C         47.67425        41.49780        -0.35225
C         46.37117        42.20878        -0.61840
C         47.58764        44.36660        -0.96718
C         46.49577        43.65785        -0.14917
C         47.67514        45.84610        -0.66399
C         46.49598        46.57003        -0.43506
C         47.68078        48.66792        -0.89713
C         46.48810        47.97693        -0.60561
C         47.64622        50.10352        -1.00788
C         46.49623        50.82907        -0.80964
C         50.36952        24.68007        -0.13736
C         49.01869        25.25749         0.07246
C         50.21662        27.39822         0.76131
C         48.94910        26.70175         0.47144
C         50.22128        28.77776         0.85288
C         48.96159        29.51151         0.89040
C         50.19142        31.62061         1.18645
C         48.99754        30.90661         1.21554
C         50.19579        33.06777         1.03480
C         48.94912        33.78377         0.95377
C         50.11260        35.84522         0.23511
C         48.90206        35.15933         0.69143
C         50.14982        37.31005         0.23248
C         48.91969        38.01630         0.31422
C         50.14235        40.10657        -0.15842
C         48.91296        39.42003         0.07065
C         50.13325        41.50841        -0.43445
C         48.88541        42.20689        -0.54781
C         50.08795        44.30687        -1.02582
C         48.89618        43.62155        -0.82453
C         50.09811        45.76003        -1.19208
C         48.89441        46.51422        -0.96924
C         50.14252        48.58078        -1.33852
C         48.91451        47.93967        -1.03887
C         51.47924        25.30229         0.29184
C         52.70780        27.34522         1.14789
C         51.41393        26.55828         1.14275
C         52.69284        28.76624         1.10980
C         51.46011        29.49308         1.03637
C         52.67842        31.61673         1.18036
C         51.45968        30.91012         1.11466
C         52.67366        33.10573         1.42800
C         51.41090        33.74156         0.91930
C         52.68706        35.88692         0.45315
C         51.45501        35.08946         0.37830
C         52.64774        37.26773         0.19149
C         51.38719        37.98062         0.08448
C         52.61453        40.10357        -0.25830
C         51.38581        39.39846        -0.09987
C         52.59933        41.50319        -0.53111
C         51.35896        42.20293        -0.63475
C         52.55376        44.27080        -1.22793
C         51.34874        43.59843        -0.97050
C         52.52809        45.64159        -1.86769
C         51.28888        46.43344        -1.50006
C         51.28677        47.84413        -1.57796
C         55.13550        27.36862         1.35796
C         53.93192        26.67369         1.29373
C         55.15411        28.78301         1.29747
C         53.92104        29.49041         1.18641
C         55.15811        31.63783         1.19503
C         53.91796        30.92157         1.18009
C         55.15207        33.08517         1.00443
C         53.93606        33.79483         0.96110
C         55.15059        35.89439         0.49191
C         53.92317        35.18894         0.66135
C         55.12442        37.31416         0.23048
C         53.88355        38.00036         0.10430
C         55.09144        40.12339        -0.27445
C         53.86749        39.40911        -0.14627
C         55.07846        41.54476        -0.55384
C         53.82702        42.21409        -0.70084
C         55.02389        44.32054        -1.16347
C         53.79740        43.60152        -1.04269
C         54.98542        45.74457        -1.42725
C         53.82817        46.38631        -1.69100
C         56.36859        29.52219         1.37542
C         56.36321        30.90399         1.30993
C         56.36254        33.80069         0.78893
C         56.36260        35.16236         0.57152
C         56.32747        38.05680         0.10432
C         56.31084        39.41323        -0.13924
C         56.27080        42.28887        -0.69579
C         56.24222        43.65141        -0.97700
O         40.79168        46.22616        -1.46536
O         47.87205        32.43866         2.73021
O         47.51509        25.31559        -1.90799
O         30.36632        36.51789         2.46587
O         48.65035        25.63450         1.45226
O         50.76288        35.22697        -0.91634
O         35.30901        41.13489         2.34438
O         37.06935        48.70604         1.36799
O         34.35157        30.35889        -1.43562
O         45.87196        35.79016         2.53338
O         40.67564        22.81467         0.27453
H         40.70671        21.83385         0.25927
O         51.18832        26.11024         2.51971
H         50.26485        25.75833         2.54488
O         41.24620        23.21180        -3.33802
H         41.84734        22.72837        -3.94353
O         43.85046        29.07007         2.45192
H         44.63469        29.46471         2.91318
O         31.73863        26.72586        -2.59716
H         31.76108        27.65317        -2.91773
O         27.18183        42.12270         2.21688
H         27.64554        41.62925         2.92714
O         42.81956        25.41739        -2.83403
H         42.08460        24.93353        -3.28740
O         45.56977        45.90802         1.64034
H         45.33291        46.82048         1.94671
O         37.79223        27.09647         1.64853
H         38.63736        27.43157         2.01979
O         35.08436        28.67844         1.76016
H         35.80688        28.10451         2.10520
O         48.26998        27.88676        -1.46893
H         48.10850        27.07883        -2.01826
O         34.26358        47.36710        -1.99334
H         34.22913        48.10380        -2.63821
O         37.77700        25.21209        -2.66978
H         36.89830        24.93536        -3.01200
O         28.63726        44.36155         1.90831
H         27.88123        43.79140         2.20834
O         52.40529        45.40006        -3.32046
H         53.17694        44.85690        -3.58835
O         44.42788        48.35242         1.53481
H         44.29832        49.31078         1.70877
O         33.97078        47.31746         1.64655
H         34.01168        46.59074         2.30240
O         40.21956        35.92430         2.91628
H         40.15842        34.97392         3.18207
O         35.07872        24.22925         0.76563
H         35.89564        23.82606         1.12742
O         36.79466        43.70682        -1.34182
H         35.95805        43.42358        -1.76526
O         46.14911        42.16920        -2.05654
H         46.04510        41.22995        -2.31464
O         40.16718        32.96649         2.81655
H         40.93221        32.42629         3.11159
O         46.95547        43.60182         1.22520
H         46.64893        44.42202         1.68444
O         37.58008        44.52410         2.12947
H         38.26839        45.08727         2.54040
O         47.21885        44.35557        -2.37354
H         47.97474        44.71521        -2.88289
O         44.73228        48.47443        -2.12203
H         45.41461        48.85467        -2.71390
O         52.65514        33.27735         2.89767
H         53.42814        32.79241         3.25754
O         34.12479        25.35243        -2.55573
H         33.28964        25.79689        -2.85602
O         46.21231        30.45599         2.99168
H         46.56501        31.21621         3.51501
O         41.52211        51.20052         1.56361
H         40.68899        51.67640         1.77355
H         26.96667        26.99188        -1.00548
H         25.72310        29.05955        -0.50867
H         25.69769        31.45554         0.02231
H         25.68945        33.29098         0.45291
H         25.68171        35.66713         0.91651
H         25.67216        37.54276         1.16741
H         25.68308        39.99880         1.11947
H         26.07314        41.43692        -0.55012
H         26.15050        43.72752        -1.43197
H         27.10846        46.06248        -1.30471
H         29.11941        25.79573        -1.30489
H         29.07580        47.48381        -0.87309
H         32.85492        23.62887        -0.29808
H         30.72741        24.86862        -0.29701
H         32.73646        49.73681        -0.88763
H         30.65802        48.58086        -0.40732
H         34.48890        22.70851        -1.60559
H         34.46565        50.65654        -1.05889
H         36.60335        21.62373        -2.06311
H         36.53357        51.92408        -0.95575
H         40.40438        19.46817        -2.11751
H         38.24708        20.60662        -1.86600
H         40.36675        54.11154        -1.04255
H         38.20915        52.93862        -0.84862
H         42.87560        19.51701        -2.18986
H         42.83859        54.13219        -0.80103
H         44.98054        20.74670        -1.92382
H         44.94936        52.92313        -0.56879
H         48.48873        22.58443        -0.23600
H         46.43605        21.54366        -1.02827
H         48.57803        50.65100        -1.19961
H         46.56545        51.92557        -0.82349
H         50.44226        23.75587        -0.73109
H         50.19794        49.67492        -1.40788
H         52.46158        24.85120         0.08621
H         52.20585        48.38424        -1.83946
H         56.08239        26.82143         1.47101
H         53.94377        25.57763         1.37427
H         55.93428        46.30152        -1.39255
H         53.85885        47.46194        -1.91349
H         57.31992        28.98020         1.47521
H         57.32447        31.43337         1.35605
H         57.32444        33.27161         0.80491
H         57.32644        35.66974         0.43408
H         57.29854        37.55503         0.20506
H         57.26966        39.94028        -0.22739
H         57.24701        41.80182        -0.57455
H         57.18430        44.21205        -1.06191
