         210
 CSIRO Nanostructure Databank - Neutral Graphene Oxide Data Set
C         30.55311        32.09978         0.28564
C         30.55639        33.12325        -0.42616
C         30.72013        35.90865        -1.63215
C         30.74670        37.15282        -1.82281
C         30.64963        40.20198        -1.63532
C         30.49254        41.39158        -1.26383
C         32.64099        29.26718         1.66140
C         31.73690        30.14020         1.50496
C         32.86692        32.14418         0.78694
C         31.59169        31.42654         0.97472
C         32.98414        33.19871        -0.16888
C         31.82482        33.63194        -1.09072
C         33.04485        35.85646        -1.35056
C         31.84008        35.11585        -1.31840
C         33.07567        37.25612        -1.60823
C         31.87300        37.99677        -1.82947
C         32.97052        40.20163        -1.39298
C         31.82624        39.42904        -1.73415
C         32.86576        41.54682        -0.91282
C         31.56104        42.19729        -0.81202
C         32.69890        44.04048         0.07319
C         31.61890        43.50905        -0.28061
C         35.34994        27.68703         1.09353
C         35.16632        29.01801         1.54285
C         33.99011        29.56701         2.01884
C         35.34275        32.06517         0.93377
C         34.07500        31.70555         1.41291
C         35.42302        33.22763         0.11525
C         34.23074        33.82315        -0.37920
C         35.62061        35.89349        -1.05470
C         34.31478        35.10577        -1.13019
C         35.61692        37.37335        -1.24530
C         34.35296        38.00611        -1.66165
C         35.50921        40.28071        -1.12116
C         34.29309        39.56206        -1.55035
C         35.36366        41.61885        -0.70351
C         34.07547        42.24150        -0.52712
C         35.19466        44.28646         0.42005
C         34.02791        43.57442         0.00953
C         35.25904        45.60051         0.96998
C         37.72217        27.57140         0.99204
C         36.39364        27.03595         0.90840
C         37.74831        28.97531         1.20353
C         36.50325        29.74160         1.53274
C         37.85967        31.86081         0.85348
C         36.56427        31.29786         1.29524
C         37.89903        33.20337         0.43177
C         36.69352        33.91845         0.03357
C         37.94652        36.08062        -0.00863
C         36.74536        35.24739        -0.36210
C         38.01642        37.36454        -0.81301
C         36.79184        38.11571        -1.14893
C         37.96285        40.36931        -0.96024
C         36.78459        39.59525        -1.17603
C         37.91713        41.80750        -0.64962
C         36.55572        42.46666        -0.51298
C         37.69616        44.42610         0.57206
C         36.48597        43.73836         0.22820
C         37.65601        45.78256         1.07918
C         36.31434        46.22154         1.22183
C         40.04956        24.68567         0.84211
C         39.02462        25.40754         0.83054
C         40.19760        27.44522         0.93857
C         38.90871        26.81277         0.90569
C         40.22512        28.87906         0.95958
C         39.01185        29.64234         1.07942
C         40.31172        31.69746         0.63787
C         39.05683        31.07564         0.92398
C         40.35943        33.10648         0.35689
C         39.16396        33.85655         0.25233
C         40.46168        35.85439        -0.24363
C         39.21894        35.24998        -0.06412
C         40.54046        37.22494        -0.75996
C         39.25440        37.78547        -1.17960
C         40.41990        40.36986        -0.41646
C         39.28891        39.88803        -1.12217
C         40.26663        41.68031         0.14952
C         39.08763        42.41819         0.00811
C         40.15344        44.49170         0.85570
C         38.97494        43.78033         0.47999
C         40.10958        45.85550         1.22348
C         38.84073        46.49765         1.34573
C         40.00942        48.56867         1.66120
C         38.96241        47.86545         1.76725
C         42.63628        24.59040         0.87280
C         41.36358        25.21395         0.87171
C         42.68016        27.36424         0.84214
C         41.41326        26.66923         0.89103
C         42.72421        28.78762         0.75303
C         41.49068        29.54305         0.79668
C         42.78396        31.58997         0.13448
C         41.51297        30.94203         0.62336
C         42.84007        33.06718         0.35401
C         41.62435        33.77611         0.25989
C         42.89622        35.90088         0.20602
C         41.67185        35.17325         0.04068
C         42.88562        37.34038         0.20590
C         41.74509        38.09761        -0.38821
C         42.73179        40.20824         0.44430
C         41.64484        39.58510        -0.16706
C         42.72871        41.63932         0.68169
C         41.39800        42.30152         0.92049
C         42.61949        44.50834         0.77140
C         41.42768        43.80116         0.80757
C         42.61788        45.94671         0.92722
C         41.40704        46.54559         1.63158
C         42.57258        48.64640         1.17953
C         41.33077        48.14715         1.52896
C         43.70346        25.25006         0.84803
C         45.16983        27.30780         0.68677
C         43.92922        26.64023         0.81230
C         45.23164        28.73705         0.61782
C         43.99503        29.47087         0.64433
C         45.27870        31.59298         0.46632
C         44.04464        30.87766         0.51680
C         45.30761        33.02257         0.47374
C         44.06185        33.75961         0.46472
C         45.31152        35.87682         1.01478
C         44.07005        35.17989         0.51877
C         45.29649        37.36140         0.74210
C         44.07173        38.02462         0.52697
C         45.24646        40.21446         1.13017
C         43.97484        39.47127         0.79501
C         45.19716        41.73316         1.22713
C         43.89603        42.36262         0.80465
C         45.07652        44.50578         0.44443
C         43.89892        43.81170         0.68659
C         44.93029        45.96305        -0.05071
C         43.77604        46.66424         0.61641
C         43.65414        48.06516         0.85224
C         47.51885        27.31976         0.27186
C         46.45247        26.71892         0.53377
C         47.70753        28.72060         0.17559
C         46.47517        29.43241         0.40465
C         47.72996        31.57102         0.13997
C         46.50434        30.85917         0.36770
C         47.74447        32.99513         0.23406
C         46.55412        33.73394         0.44497
C         47.80823        35.90191         0.54099
C         46.59424        35.16498         0.63473
C         47.76302        37.36622         0.74254
C         46.52620        38.09029         0.81498
C         47.75171        40.27850         0.86470
C         46.55093        39.51917         0.93307
C         47.65205        41.74866         0.88397
C         46.42256        42.43711         0.72242
C         47.61300        44.57910         0.45264
C         46.37379        43.83724         0.53402
C         47.33107        45.95178         0.16014
C         46.28663        46.61585         0.14134
C         50.08495        28.85415        -0.74142
C         48.87438        29.42337        -0.21325
C         50.18836        31.57165        -0.60694
C         48.90267        30.83914        -0.22157
C         49.95952        33.04849        -0.85981
C         49.06686        33.71170         0.17947
C         50.03812        35.85133        -0.65094
C         48.96268        35.20722         0.05170
C         50.40385        37.17873        -0.31639
C         48.91765        38.16584         0.83100
C         50.30709        40.13034         0.24516
C         48.99455        39.57290         0.69302
C         50.62890        41.46102         0.61580
C         48.77072        42.56365         1.10025
C         50.20153        44.32994         0.56844
C         48.82229        43.94295         0.75788
C         50.89247        29.43324        -1.52958
C         51.52532        31.70674        -2.65652
C         50.99436        30.80466        -1.74524
C         51.33196        32.95026        -2.79067
C         50.61847        33.77895        -1.85202
C         51.37286        36.18129        -2.52304
C         50.66582        35.21375        -1.77666
C         51.52951        37.41333        -2.29627
C         51.06181        38.11034        -1.14611
C         52.12960        40.41085        -1.19096
C         51.17244        39.48687        -0.72598
C         52.32939        41.63719        -0.96420
C         51.55359        42.34822        -0.02016
C         51.22731        43.72554         0.21450
O         50.15881        37.53289         1.01644
O         49.90097        41.98716         1.69725
O         34.05801        30.88409         2.55415
O         41.57457        37.54283        -1.74562
O         39.41418        38.86001        -2.05960
O         37.35544        42.61170        -1.74435
O         34.46479        38.87349        -2.82658
O         35.21601        35.13579        -2.26924
O         36.64879        30.69220         2.61765
O         44.41385        39.67058         2.21195
O         41.57800        46.26829         3.04369
H         42.44850        46.62247         3.32398
O         32.01678        32.96947        -2.33671
H         31.42361        33.37162        -3.00479
O         44.65314        45.88798        -1.45205
H         44.48881        46.79483        -1.78518
O         45.22662        35.76961         2.49700
H         45.91569        36.35880         2.87285
O         37.79096        36.48415         1.39902
H         37.77387        35.66855         1.94404
O         42.72127        31.44611        -1.34877
H         42.68763        30.48478        -1.54473
O         51.08032        31.46850         0.53292
H         50.72139        32.08778         1.22368
O         45.23748        42.04379         2.66787
H         44.75948        41.30430         3.11480
O         41.09696        42.02987         2.33998
H         41.78861        42.47017         2.87911
O         49.70886        33.50867         1.52062
H         50.27503        34.29098         1.70007
