         204
 CSIRO Nanostructure Databank - Neutral Graphene Oxide Data Set
C        -10.91097         0.73902         1.03685
C         -9.66364         1.47241         0.91552
C         -8.47286         0.70748         0.63889
C         -7.13152         1.39552         0.63143
C         -6.08847         0.69621        -0.21255
C         -4.90291         1.41432        -0.58158
C         -3.70703         0.72808        -0.86175
C         -2.45152         1.40897        -0.97956
C         -1.26299         0.70037        -0.90226
C          0.06687         1.39855        -1.08674
C          1.18247         0.67912        -0.35600
C          2.28232         1.44177         0.24303
C          3.53117         0.67210         0.68016
C          4.81891         1.41315         0.85729
C          6.09060         0.70236         0.62218
C          7.30444         1.42877         0.59420
C          8.53937         0.71509         0.51452
C          9.78202         1.44727         0.51168
C         11.01937         0.70264         0.47308
C         -9.63730         2.84951         1.06607
C         -8.33809         3.61654         1.10778
C         -7.28713         2.86485         0.30286
C         -6.13294         3.60466        -0.29220
C         -4.86951         2.87440        -0.56244
C         -3.73653         3.57056        -0.89033
C         -2.46908         2.87111        -1.36254
C         -1.19289         3.62401        -1.01010
C          0.02964         2.89245        -0.81024
C          1.22572         3.56096        -0.51853
C          2.39535         2.89324        -0.01356
C          3.57371         3.59622         0.25021
C          4.80823         2.91939         0.71070
C          6.10303         3.60543         0.52024
C          7.30692         2.87369         0.58073
C          8.55701         3.58357         0.54112
C          9.77645         2.83717         0.53782
C         -8.43661         5.05770         0.69320
C         -7.31772         5.76044         0.22700
C         -6.11704         5.07489        -0.17435
C         -4.97678         5.79328        -0.55566
C         -3.78520         5.04414        -1.03060
C         -2.47138         5.79201        -1.08516
C         -1.22445         5.01103        -0.96471
C          0.01665         5.78964        -0.93852
C          1.31714         5.00967        -0.72140
C          2.48537         5.74969        -0.24228
C          3.64611         5.02688         0.09474
C          4.87891         5.73332         0.27483
C          6.11171         5.01577         0.41185
C          7.35541         5.72884         0.44883
C          8.55980         4.99053         0.51111
C         -7.30695         7.18909         0.18858
C         -6.14746         7.89752        -0.13164
C         -4.95901         7.20443        -0.50449
C         -3.75065         7.99172        -0.97999
C         -2.45761         7.23072        -0.78151
C         -1.25740         7.89961        -0.52103
C          0.00017         7.21125        -0.56730
C          1.21253         7.88472        -0.32485
C          2.45794         7.16643        -0.20364
C          3.66572         7.87048         0.06582
C          4.88656         7.15035         0.22737
C          6.13083         7.86183         0.36249
C          7.33278         7.15294         0.44394
C         -6.13046         9.34995        -0.05200
C         -4.96733        10.04815        -0.14504
C         -3.70718         9.38206        -0.38736
C         -2.51512        10.00981        -0.14156
C         -1.24933         9.32727        -0.25507
C         -0.04373         9.99387        -0.07979
C          1.20733         9.30809        -0.10425
C          2.42842         9.98786         0.08976
C          3.65418         9.30062         0.14992
C          4.90666         9.98533         0.32206
C          6.09011         9.30115         0.39888
C        -10.95050        -0.61998         0.97059
C         -9.75955        -1.39915         0.72377
C         -8.51849        -0.68356         0.50203
C         -7.34176        -1.41555         0.12332
C         -6.18251        -0.69822        -0.32838
C         -5.07136        -1.45231        -0.93752
C         -3.73044        -0.72429        -1.07626
C         -2.47132        -1.47330        -0.90982
C         -1.25895        -0.74000        -0.77394
C         -0.04023        -1.43977        -0.55737
C          1.17413        -0.70540        -0.24857
C          2.36505        -1.45539         0.12870
C          3.58840        -0.77162         0.41574
C          4.83395        -1.42230         0.45026
C          6.07922        -0.70876         0.48526
C          7.31912        -1.42742         0.41525
C          8.54350        -0.70220         0.44755
C          9.79985        -1.41943         0.39058
C         11.02731        -0.65847         0.41881
C         -9.77837        -2.78620         0.72168
C         -8.59175        -3.55127         0.48608
C         -7.37677        -2.85026         0.13869
C         -6.22004        -3.60007        -0.14520
C         -5.05374        -2.93715        -0.76131
C         -3.73535        -3.64972        -0.74475
C         -2.47296        -2.87339        -0.77782
C         -1.26001        -3.57858        -0.59974
C         -0.04081        -2.85741        -0.52126
C          1.19021        -3.57535        -0.34747
C          2.36146        -2.86365         0.00176
C          3.56715        -3.64236         0.31141
C          4.87698        -2.88560         0.50754
C          6.13948        -3.59649         0.26044
C          7.33805        -2.85846         0.29505
C          8.60188        -3.56485         0.25030
C          9.81409        -2.80371         0.30640
C         -8.59677        -4.95469         0.53377
C         -7.41135        -5.71010         0.34452
C         -6.19101        -5.01066         0.04383
C         -4.96543        -5.72552        -0.01944
C         -3.68216        -4.94284         0.03848
C         -2.44895        -5.73542        -0.28160
C         -1.24779        -5.02555        -0.48277
C         -0.01286        -5.72521        -0.52255
C          1.21499        -4.99805        -0.46207
C          2.45917        -5.69708        -0.45783
C          3.64421        -5.04311        -0.13243
C          4.91434        -5.71195        -0.15893
C          6.12726        -5.00421         0.05006
C          7.40056        -5.71917         0.04689
C          8.60986        -4.95660         0.19076
C         -7.37139        -7.12533         0.45406
C         -6.17288        -7.83579         0.31514
C         -4.93795        -7.12499         0.10945
C         -3.69276        -7.84576         0.04579
C         -2.46134        -7.14734        -0.16546
C         -1.23177        -7.86798        -0.24942
C         -0.00636        -7.16383        -0.43338
C          1.21287        -7.87495        -0.47935
C          2.47370        -7.14604        -0.85827
C          3.74206        -7.85197        -0.45470
C          4.92560        -7.14166        -0.34579
C          6.23336        -7.87357        -0.52746
C          7.43595        -7.09397        -0.08665
C         -6.11714        -9.27232         0.43208
C         -4.93434        -9.95144         0.35929
C         -3.67713        -9.26691         0.16378
C         -2.45978        -9.96744         0.09187
C         -1.22312        -9.29341        -0.10490
C          0.02017        -9.97773        -0.13493
C          1.23256        -9.28610        -0.31800
C          2.51078        -9.97023        -0.26056
C          3.71349        -9.29052        -0.29334
C          4.97924        -9.95915        -0.00249
C          6.15470        -9.29614        -0.02564
O         -2.50781         2.87214        -2.82740
H         -2.72402         3.79951        -3.09684
O          6.39727        -7.99418        -1.99761
H          5.53649        -8.30064        -2.35691
O          2.51749         1.05376         1.64845
O         -7.28851         3.12625        -1.11476
O          2.49107        -7.15566        -2.34457
H          2.29622        -8.07412        -2.62922
O         -7.91266         3.65162         2.51404
H         -7.50647         2.77241         2.71575
O          4.77726         2.27280         2.03844
O          4.11716        -3.42490         1.65243
O         -3.90789         8.17592        -2.42872
H         -3.81980         7.27703        -2.82966
O         -3.26365         5.48947        -2.34656
O         -3.53690        -4.50921         1.44274
H         -3.43099        -5.31489         1.99207
O          0.90433         5.45882        -2.05756
O         -6.61692         1.32557         2.01874
H         -6.65358         0.38558         2.29852
O         -4.54495        -3.66878        -1.94268
O         -4.59121        -1.04316        -2.23772
O          0.37115         1.29629        -2.52078
H         -0.37813         1.71674        -3.00109
H         11.98043        -1.20670         0.38638
H         11.96579         1.26311         0.48521
H         10.73192         3.38319         0.52842
H          9.52042         5.52698         0.52287
H          8.28344         7.70272         0.51423
H          7.03732         9.84922         0.51050
H          4.90103        11.08407         0.37505
H          2.41831        11.08172         0.21036
H         -0.04852        11.07933         0.10141
H         -2.51200        11.05427         0.20805
H         -4.95854        11.13551         0.02557
H         -7.07530         9.86809         0.16784
H         -8.21824         7.73715         0.47071
H         -9.32989         5.62385         0.99963
H        -10.57335         3.38491         1.28780
H        -11.83191         1.31127         1.22218
H        -11.90381        -1.15310         1.10206
H        -10.72104        -3.31721         0.92290
H         -9.53874        -5.48070         0.75055
H         -8.30151        -7.67275         0.66966
H         -7.05832        -9.82108         0.58512
H         -4.92233       -11.04770         0.45067
H         -2.46191       -11.06292         0.19609
H          0.03627       -11.06951         0.00104
H          2.50924       -11.05652        -0.08363
H          4.94373       -11.02150         0.28470
H          7.09349        -9.82340         0.20268
H          8.40628        -7.61413        -0.07096
H          9.57085        -5.49267         0.19699
H         10.77621        -3.33657         0.26907
