         429
 CSIRO Nanostructure Databank - Neutral Graphene Oxide Data Set
C          1.47477         2.26432        -2.11080
C          1.41020         3.55679        -1.58906
C          2.70886         1.66229        -2.32558
C          2.58210         4.24899        -1.22844
C          1.27537         6.30591        -0.59367
C          1.20707         7.65413        -0.31253
C          2.51830         5.65965        -0.84321
C          2.37710         8.45780        -0.25264
C          1.09531        10.59332        -0.04785
C          1.06532        11.97007        -0.01662
C          2.32930         9.88273        -0.02715
C          2.25735        12.73256         0.10032
C          1.05774        14.90270        -0.23770
C          1.07538        16.26650        -0.44277
C          2.25589        14.17102         0.00387
C          2.29769        16.98304        -0.42785
C          2.33811        18.38630        -0.70089
C          3.91477         2.28403        -1.92819
C          3.84585         3.58810        -1.31515
C          5.14052         1.64424        -2.36782
C          5.02554         4.35796        -0.97696
C          3.69442         6.43343        -0.76638
C          3.63593         7.83367        -0.46756
C          4.98432         5.78388        -0.87344
C          4.83755         8.59660        -0.33656
C          3.53137        10.60852         0.16219
C          3.49357        12.04475         0.28910
C          4.79729         9.93535         0.06337
C          4.68959        12.76254         0.54792
C          3.48754        14.87261         0.08470
C          3.50823        16.28318        -0.14399
C          4.70904        14.17950         0.42164
C          4.74079        16.99420        -0.12958
C          3.52849        19.06357        -0.72601
C          4.76564        18.38866        -0.45129
C          6.36107         1.84278        -1.75111
C          6.28019         3.75593        -0.78926
C          7.69616         1.62816        -2.18637
C          7.51088         4.43790        -0.90941
C          6.18139         6.50586        -0.74582
C          6.14702         8.01006        -0.78048
C          7.44692         5.85913        -0.81140
C          7.36138         8.63882        -0.14549
C          6.02454        10.62314         0.43818
C          5.83968        11.95654         1.13794
C          7.23910         9.95965         0.43647
C          7.12818        12.77465         1.29439
C          5.91557        14.92676         0.55057
C          5.95462        16.31406         0.21433
C          7.13473        14.24903         1.05444
C          7.17464        17.03959         0.16730
C          5.98995        19.07117        -0.52011
C          7.21233        18.40250        -0.25283
C          8.79885         2.38351        -1.72230
C          8.75733         3.76510        -1.19697
C         10.06730         1.76616        -1.86487
C          9.93930         4.53129        -1.13669
C          8.66093         6.60241        -0.67104
C          8.57638         7.99000        -0.26569
C          9.90013         5.92356        -0.78984
C          9.84112         8.78017        -0.05553
C          8.43182        10.54971         1.11757
C          8.42916        12.01653         1.43531
C          9.73847         9.75576         1.12384
C          9.73769        12.81720         1.59989
C          8.45543        14.96357         0.97778
C          8.44218        16.39469         0.52787
C          9.71887        14.18116         0.90507
C          9.68478        17.00595         0.07537
C          8.45852        19.07020        -0.39753
C          9.69060        18.36929        -0.29672
C         11.26447         2.43361        -1.58654
C         11.24877         3.93903        -1.65737
C         12.45333         1.72733        -1.41584
C         12.52315         4.57672        -1.08271
C         11.12064         6.63833        -0.43774
C         11.07439         7.91718         0.07866
C         12.44080         5.97118        -0.51142
C         12.25242         8.52613         0.64216
C         10.98279        10.62900         1.11326
C         10.97182        12.02534         1.21680
C         12.20885         9.93468         0.98132
C         12.18373        12.74635         1.00089
C         10.89220        14.81722         0.57812
C         10.90073        16.15601        -0.13100
C         12.17084        14.14805         0.72575
C         12.17943        16.93728         0.01904
C         10.94565        19.01782        -0.51194
C         12.16436        18.34313        -0.26944
C         13.64702         2.33474        -0.94411
C         13.66222         3.75737        -0.63322
C         14.80749         1.57112        -0.81837
C         14.72835         4.32789         0.06814
C         13.54907         6.46396         0.33563
C         13.43952         7.80517         0.80331
C         14.68787         5.67460         0.56127
C         14.61039         8.48531         1.48228
C         13.44024        10.64074         1.05297
C         13.42875        12.05288         0.96060
C         14.67750         9.93534         1.08262
C         14.66412        12.75367         0.84442
C         13.38939        14.84412         0.54281
C         13.38239        16.26548         0.25372
C         14.64317        14.17188         0.66790
C         14.62461        16.97689         0.20399
C         13.39761        19.04566        -0.29047
C         14.60728        18.38501        -0.05592
C         16.00130         2.15174        -0.30509
C         15.80523         3.37436         0.57375
C         17.21094         1.52370        -0.46014
C         17.11524         4.08766         0.94569
C         15.75230         6.22581         1.53456
C         15.90951         7.73038         1.32008
C         17.08711         5.48566         1.47796
C         17.11532         8.39514         1.20687
C         15.87618        10.61442         0.95832
C         15.89210        12.03919         0.87114
C         17.18279         9.87008         0.82105
C         17.14411        12.75960         0.85753
C         15.87843        14.87970         0.56763
C         15.86170        16.30027         0.37501
C         17.11957        14.18482         0.67719
C         17.09427        17.02670         0.35111
C         15.85458        19.08720        -0.10105
C         17.05441        18.44919         0.09933
C         18.47410         2.23627        -0.23099
C         18.41654         3.60146         0.38003
C         19.75127         1.52750        -0.22181
C         19.66819         4.24268         0.86982
C         18.37874         6.26718         1.72993
C         18.38168         7.71721         1.30243
C         19.63498         5.53728         1.31561
C         19.60538         8.42167         1.38299
C         18.26567        10.63911         1.58560
C         18.36000        12.08275         1.08991
C         19.59386         9.89221         1.58998
C         19.60174        12.78654         1.03320
C         18.34721        14.91265         0.66363
C         18.31294        16.33150         0.54680
C         19.59784        14.21154         0.80088
C         19.57124        17.07895         0.68261
C         18.30242        19.27983        -0.07656
C         19.57858        18.59165         0.35662
C         20.91742         2.13805         0.18831
C         20.92432         3.52328         0.68394
C         22.15365         1.41246         0.09824
C         22.11800         4.12498         1.01421
C         20.88476         6.28407         1.58523
C         20.86637         7.75848         1.43470
C         22.19063         5.53797         1.45145
C         22.10985         8.45905         1.29163
C         20.88873        10.64750         1.43636
C         20.84867        12.09983         1.14763
C         22.12031         9.87603         1.17198
C         22.08458        12.77776         0.99023
C         20.82979        14.92029         0.70931
C         20.84085        16.34971         0.57951
C         22.08187        14.22138         0.78831
C         22.03475        17.06401         0.38968
C         20.82962        19.16802        -0.08300
C         22.03834        18.48345         0.07577
C         23.37596         2.00050         0.38224
C         23.38347         3.38582         0.90683
C         24.61616         1.32437         0.25094
C         24.66312         4.16292         0.87522
C         23.42117         6.32060         1.16891
C         23.36739         7.74300         1.15598
C         24.62562         5.64744         0.90927
C         24.58961         8.46671         0.95179
C         23.32870        10.59714         0.98366
C         23.29922        12.02998         0.98276
C         24.57426         9.89114         0.89726
C         24.58061        12.73707         0.99796
C         23.27944        14.94216         0.62646
C         23.28473        16.35843         0.36066
C         24.55941        14.25963         0.82751
C         24.47836        17.06642         0.11834
C         23.26739        19.15594        -0.16103
C         24.50275        18.48654        -0.10506
C         25.84366         2.01663         0.27362
C         25.80747         3.52280         0.11982
C         27.06881         1.35323         0.23764
C         27.10845         4.22158         0.41594
C         25.85549         6.34683         0.77082
C         25.83930         7.76981         0.82068
C         27.09054         5.59897         0.63925
C         27.06954         8.51965         0.74656
C         25.80911        10.61395         0.71045
C         25.81198        12.00614         0.68236
C         27.06464         9.89945         0.66285
C         27.00261        12.72166         0.10328
C         25.80569        14.91135         0.38565
C         25.74227        16.33475        -0.01532
C         26.97274        14.21812         0.27792
C         27.00684        17.11354        -0.19091
C         25.73001        19.21029        -0.27530
C         26.99556        18.59342        -0.25899
C         28.31771         2.05199         0.21519
C         28.32677         3.48780         0.33405
C         29.52904         1.34689         0.11150
C         29.57806         4.18120         0.29299
C         28.37775         6.30241         0.80293
C         28.37085         7.81128         0.86220
C         29.62052         5.61573         0.40866
C         29.61628         8.52602         0.49222
C         28.36269        10.66028         0.88909
C         28.33646        12.08233         0.39940
C         29.60008         9.91952         0.42949
C         29.51251        12.73309         0.06656
C         28.26046        14.94309         0.27683
C         28.28108        16.44601         0.18275
C         29.48165        14.20268        -0.16226
C         29.51747        17.16153        -0.12055
C         28.23102        19.24962        -0.39315
C         29.49548        18.54640        -0.38795
C         30.77467         2.02603         0.04708
C         30.76176         3.45368         0.09747
C         32.01503         1.33052        -0.04639
C         32.01098         4.16684        -0.31600
C         30.81693         6.34409         0.23625
C         30.81867         7.79099         0.25676
C         32.04420         5.64569        -0.01055
C         32.02329         8.49897        -0.01432
C         30.78961        10.64033         0.09523
C         30.76820        12.05001        -0.04335
C         32.01178         9.91311        -0.11013
C         31.95338        12.75569        -0.68770
C         30.74995        14.97045        -0.31091
C         30.78988        16.42215         0.15421
C         32.03814        14.23317        -0.35565
C         32.00742        17.14218        -0.32528
C         30.73744        19.22245        -0.58026
C         31.99190        18.53293        -0.54571
C         33.25941         1.99047         0.14018
C         33.24496         3.49828         0.30177
C         34.46488         1.33591         0.31816
C         34.51742         4.11066        -0.29180
C         33.27117         6.31813        -0.06262
C         33.28267         7.77342        -0.09402
C         34.52294         5.61567        -0.17823
C         34.47586         8.44001        -0.27568
C         33.22770        10.63513        -0.37200
C         33.26228        12.02283        -0.49240
C         34.46098         9.86991        -0.60167
C         34.50739        12.72932        -0.57658
C         33.21435        14.91079        -0.35073
C         33.25681        16.38888        -0.16000
C         34.48519        14.20553        -0.65938
C         34.54479        17.15008        -0.27064
C         33.23803        19.22260        -0.75099
C         34.48431        18.58391        -0.64797
C         35.66738         2.07971         0.84518
C         35.75382         3.47110         0.26731
C         36.97105         1.33015         0.79553
C         36.94450         4.13004         0.08040
C         35.75332         6.27687        -0.20885
C         35.79437         7.77045         0.00419
C         36.98233         5.54832        -0.19706
C         37.00600         8.44994        -0.59226
C         35.77586        10.61529        -0.75023
C         35.74750        12.07620        -0.59004
C         37.05471         9.85746        -0.64648
C         36.99667        12.79306        -0.46478
C         35.80027        14.95449        -0.60325
C         35.82734        16.42896        -0.42811
C         37.03503        14.17167        -0.42210
C         36.99539        17.13346        -0.49392
C         35.70561        19.23658        -0.89283
C         36.96901        18.57316        -0.77849
C         38.17601         1.95401         0.56060
C         38.19940         3.35560         0.08054
C         39.44910         1.31498         0.74009
C         39.50426         4.11759         0.04547
C         38.24262         6.24329        -0.19659
C         38.24995         7.67015        -0.62204
C         39.44745         5.59119         0.03149
C         39.55410         8.39073        -0.79867
C         38.26360        10.57299        -0.62830
C         38.25940        12.01115        -0.32015
C         39.54670         9.91097        -1.06112
C         39.59901        12.75200        -0.34712
C         38.30508        14.91787        -0.23394
C         38.28762        16.42140        -0.28607
C         39.58402        14.21724        -0.51691
C         39.56768        17.14113        -0.60301
C         38.14258        19.24142        -1.09159
C         39.47120        18.60877        -1.02059
C         40.64537         2.02588         0.72878
C         40.71647         3.41519         0.49134
C         41.91525         4.17704         0.63103
C         40.71232         6.32917         0.25587
C         40.78445         7.78566        -0.17722
C         41.93664         5.53810         0.47957
C         42.05056         8.48988        -0.47241
C         40.83816        10.61827        -0.69860
C         40.84890        12.00614        -0.64090
C         42.04768         9.82692        -0.71831
C         42.03801        12.80171        -0.79955
C         40.74157        14.90217        -0.84221
C         40.74121        16.35745        -1.04334
C         41.98068        14.15860        -0.94006
C         41.78858        17.02180        -1.64141
C         40.57107        19.13757        -1.83363
C         41.69424        18.39615        -2.04211
O         26.37174        16.49834        -1.36519
O         35.04058        10.15497        -1.93929
O         20.35097        10.28268         2.78609
O         24.25887         3.52066         2.10640
O         33.97899        16.83648         1.06551
O         29.92282        14.68238        -1.49850
O         38.92077         3.51936        -1.18568
O          8.20125        11.02288         2.49134
O         38.33748        15.72341         1.00749
O          6.30047         2.40470        -0.45418
O          6.96864        13.69560         2.43416
O         28.49553         7.03004         2.09986
O         35.11481        14.68498        -1.90337
O          8.52747        16.01215         2.01011
O         18.45175         3.51326        -1.07738
O         24.70772        13.65962         2.15869
O         17.14929         4.32344         2.38026
O         40.57679         7.45225         1.23392
O         19.55475        18.11157         1.73241
O         28.35688        15.76015         1.49485
O         12.91780         5.73427        -1.90387
O         39.01543         7.69086        -1.95339
O         38.98658        12.31949         0.92776
O         21.61522         5.81212         2.78105
O         39.87543        18.20461         0.34438
O         31.68879        12.68563        -2.12956
H         30.96601        13.33469        -2.31555
O         30.96579        16.31147         1.60961
H         31.16170        17.20468         1.96376
O         33.19902         3.81731         1.70713
H         33.89366         3.27308         2.16251
O         11.23296         4.23027        -3.08719
H         11.75199         5.06228        -3.20320
O         39.51151        10.08270        -2.52160
H         39.09695         9.25893        -2.88366
O         28.48462        10.75016         2.35634
H         28.52982         9.83432         2.70787
O         10.02115         9.60900        -1.24373
H          9.96652         9.02747        -2.03124
O         26.83957        12.53130        -1.36582
H         27.51787        13.08046        -1.81705
O         15.24913         2.80969         1.79292
H         15.55249         3.38886         2.53410
O         17.57502         9.91395        -0.57999
H         16.87021         9.48807        -1.11128
O         35.98223         7.94523         1.46935
H         35.27228         7.43749         1.91874
O          9.74444         8.94787         2.31454
H          9.41541         9.51818         3.04655
O         17.81309        10.72067         2.95346
H         18.61283        10.85125         3.51345
O         25.51144         3.78239        -1.29267
H         26.23425         3.39028        -1.82683
O          6.25732         8.37450        -2.21895
H          5.49042         7.96748        -2.67647
O         18.42163        19.66667        -1.46002
H         18.25982        18.88069        -2.02077
O          5.39568        11.61644         2.48269
H          5.68582        12.35329         3.06815
O         35.39341         2.27701         2.31483
H         36.19462         2.68385         2.71033
O         18.43448         6.34944         3.19673
H         19.35350         6.58055         3.45539
O          9.85483        13.12413         3.01295
H          9.01133        13.55490         3.28296
O         15.21468         6.00063         2.87446
H         15.98439         5.92932         3.48259
O         34.57210         3.76433        -1.72648
H         35.40136         4.14483        -2.08921
O         14.31467         8.51859         2.91299
H         14.40334         7.58572         3.23433
O         31.97710         4.03725        -1.76569
H         32.90699         4.05801        -2.10478
O         10.83557        15.78531        -1.57676
H         10.99609        16.60737        -2.08936
H          0.55090         1.74428        -2.39921
H          0.42899         4.04162        -1.50506
H          2.75665         0.67371        -2.80421
H          0.34224         5.72752        -0.60656
H          0.22340         8.10176        -0.11710
H          0.14924        10.04646        -0.15567
H          0.09429        12.47604        -0.09743
H          0.09467        14.37694        -0.27683
H          0.13840        16.80667        -0.64071
H          1.39460        18.91132        -0.90933
H          5.08795         1.02606        -3.27673
H          3.55394        20.13857        -0.95577
H          7.90530         0.80763        -2.89066
H          6.00609        20.13313        -0.80637
H         10.09995         0.68442        -2.06821
H          8.46706        20.13542        -0.66961
H         12.44215         0.63366        -1.54137
H         10.96201        20.08856        -0.75979
H         14.83056         0.54876        -1.22461
H         13.39855        20.12585        -0.49721
H         17.25244         0.54854        -0.97054
H         15.84587        20.16472        -0.32226
H         19.77173         0.47905        -0.55368
H         18.19802        20.23182         0.50600
H         22.12217         0.37973        -0.28000
H         20.81300        20.14534        -0.58640
H         24.61692         0.23275         0.10857
H         23.24464        20.23457        -0.37543
H         27.08395         0.25257         0.24472
H         25.66714        20.30089        -0.40863
H         29.50872         0.24875         0.05400
H         28.24768        20.34461        -0.49891
H         32.00013         0.23198        -0.12093
H         30.73403        20.30852        -0.75113
H         34.52890         0.24429         0.18958
H         33.21005        20.29656        -0.98851
H         36.96429         0.28548         1.14402
H         35.69905        20.30020        -1.17492
H         39.46484         0.24327         0.98564
H         38.08891        20.28802        -1.42849
H         41.57770         1.49251         0.96830
H         42.84734         3.64604         0.87609
H         42.87791         6.08459         0.62977
H         43.00228         7.94367        -0.40731
H         43.01443        10.33730        -0.83924
H         43.01202        12.30172        -0.88931
H         42.91547        14.70966        -1.10808
H         42.69247        16.47380        -1.94111
H         40.46480        20.13518        -2.28429
H         42.52793        18.82026        -2.61961
