         334
 CSIRO Nanostructure Databank - Neutral Graphene Oxide Data Set
C         30.62002        57.12294        -1.31296
C         30.21453        58.42581        -1.18577
C         29.65878        59.39960        -2.05851
C         30.67571        61.51763        -1.06548
C         29.76835        60.79423        -1.83945
C         32.84591        52.90951        -0.38645
C         32.79002        54.35040        -0.26725
C         31.60430        55.03133        -0.41879
C         32.80748        57.26430        -0.14473
C         31.45972        56.51049        -0.19143
C         32.87736        58.68790        -0.19861
C         31.75821        59.51326        -0.08524
C         32.95305        61.59328         0.00071
C         31.79708        60.95012        -0.35418
C         35.35289        48.66286        -0.18840
C         35.28197        50.05951         0.08099
C         34.07767        50.76426        -0.16889
C         35.15752        52.90725         0.45719
C         33.98145        52.16939        -0.06167
C         35.25614        54.34342         0.06679
C         34.00472        55.11159        -0.03943
C         35.30683        57.21555         0.10633
C         34.02617        56.51314        -0.04820
C         35.39575        58.60340        -0.16759
C         34.18094        59.46294        -0.39052
C         35.36758        61.57136         0.64533
C         34.09689        60.76088         0.55798
C         37.90580        44.50316        -0.64160
C         37.84783        45.89089        -0.46704
C         36.62598        46.57303        -0.39807
C         37.76750        48.64668         0.33725
C         36.56041        47.96655        -0.12140
C         37.68683        50.04712         0.72548
C         36.46645        50.72902         0.53862
C         37.71306        52.91284         0.88076
C         36.42936        52.17680         0.78106
C         37.73382        54.31325         0.80143
C         36.55041        55.05038         0.29512
C         37.69147        57.21462         0.71835
C         36.50462        56.51490         0.39007
C         37.74480        58.61034         0.48322
C         36.67998        59.18681        -0.26086
C         37.81669        61.68814         1.07645
C         36.47480        61.16343         1.36085
C         40.31970        40.25797        -0.68069
C         40.34304        41.62459        -0.58086
C         39.13103        42.39428        -0.71542
C         40.43762        44.52070        -0.63908
C         39.12295        43.77465        -0.64355
C         40.34198        45.90425        -0.04767
C         39.12898        46.70187        -0.45112
C         40.12479        48.51990         1.04712
C         38.97206        47.97469         0.33447
C         40.04804        49.98846         1.49601
C         38.85928        50.75239         1.14029
C         40.08929        52.91365         1.51938
C         38.89857        52.18825         1.18117
C         40.09994        54.31121         1.42426
C         38.92704        55.02359         1.05733
C         40.11120        57.16793         1.12527
C         38.91980        56.48517         1.01776
C         40.12074        58.61764         1.30498
C         38.84696        59.39705         1.06970
C         40.23720        61.44012         0.71501
C         38.93531        60.88681         0.94606
C         43.21617        36.75103        -2.61254
C         43.00859        37.80275        -1.63666
C         41.77054        38.37897        -1.47112
C         42.75764        40.17122        -0.07389
C         41.50272        39.39016        -0.37617
C         42.76590        41.54662         0.07142
C         41.56988        42.32710        -0.20440
C         42.75580        44.40547         0.36355
C         41.58126        43.70575        -0.08968
C         42.72757        45.79966         0.57710
C         41.47983        46.53762         0.44560
C         42.62975        48.61379         1.23917
C         41.44474        47.90042         0.90317
C         42.62060        49.98883         1.60721
C         41.33470        50.68834         1.83190
C         42.63056        52.93940         2.21208
C         41.30499        52.18685         1.98632
C         42.64102        54.33743         1.64047
C         41.34205        55.10006         1.80497
C         42.64019        57.18325         1.42141
C         41.40572        56.40832         1.01987
C         42.54952        58.59608         1.66041
C         41.41117        59.33580         1.29023
C         42.64713        61.30765         0.32996
C         41.42947        60.70460         0.81987
C         45.87110        34.28644        -3.69023
C         44.60141        35.07302        -3.83005
C         45.55661        36.52497        -1.94211
C         44.42756        36.13892        -2.77031
C         45.39142        37.63927        -1.02129
C         44.15666        38.24060        -0.86768
C         45.25004        40.15498         0.32275
C         43.99308        39.34316         0.15109
C         45.18193        41.50379         0.64250
C         43.97437        42.24554         0.45779
C         45.16348        44.38438         0.85487
C         43.96688        43.66581         0.58883
C         45.15288        45.77911         1.01405
C         43.91337        46.50767         0.94038
C         45.11509        48.62507         1.35371
C         43.89116        47.90688         1.17126
C         45.11140        50.03047         1.51240
C         43.85042        50.74777         1.67032
C         45.15139        52.90588         1.98953
C         43.86017        52.13655         1.84004
C         45.09995        54.32902         1.45357
C         43.83183        55.02003         1.39780
C         45.09189        57.14204         0.89168
C         43.84170        56.48025         1.22291
C         45.10222        58.50385         0.33773
C         43.88583        59.13739        -0.26400
C         45.01668        61.30192        -0.33895
C         43.80137        60.62625        -0.06433
C         46.87239        34.66974        -2.86529
C         47.89842        36.14320        -1.08009
C         46.74894        35.82270        -2.00231
C         47.84115        37.54779        -0.52726
C         46.57882        38.19626        -0.38439
C         47.72669        40.16610         0.54892
C         46.51515        39.48052         0.20285
C         47.69428        41.50345         1.02348
C         46.37746        42.20912         1.24000
C         47.63283        44.37581         1.37243
C         46.47584        43.64949         0.74839
C         47.61239        45.75492         1.44345
C         46.37747        46.49373         1.24396
C         47.60317        48.61040         1.42600
C         46.36138        47.89573         1.35031
C         47.59932        50.02072         1.41698
C         46.36079        50.74765         1.50054
C         47.59036        52.89231         1.40508
C         46.38067        52.15633         1.55732
C         47.57350        54.31391         1.29938
C         46.30521        55.02448         1.28317
C         47.59357        57.20047         1.11246
C         46.28896        56.44032         0.99252
C         47.55753        58.63643         0.57392
C         46.25914        59.24279         0.21947
C         47.43288        61.22259        -0.77161
C         46.24163        60.59774        -0.33880
C         49.00631        38.18074        -0.12403
C         50.16538        40.18932         0.77939
C         48.98183        39.50886         0.39195
C         50.11912        41.49220         1.25841
C         48.87595        42.17675         1.33979
C         50.11483        44.34613         1.74627
C         48.81447        43.58908         1.89276
C         50.10974        45.75899         1.73395
C         48.84538        46.49318         1.63228
C         50.14290        48.56774         1.23500
C         48.83453        47.87056         1.49840
C         50.07990        50.06128         1.38268
C         48.84901        50.74858         1.39123
C         50.06325        52.86861         1.18501
C         48.83507        52.17189         1.32958
C         50.02979        54.29216         0.91845
C         48.80144        55.00751         0.99670
C         49.95771        57.00023         0.15085
C         48.80569        56.39871         0.68268
C         49.90395        58.37257        -0.41902
C         48.76518        59.25919        -0.06352
C         49.86921        61.18188        -1.19052
C         48.68015        60.56993        -0.76469
C         51.37636        42.14239         1.78898
C         52.54259        44.36516         1.77550
C         51.33696        43.65266         1.74553
C         52.54895        45.76545         1.86821
C         51.33402        46.46406         1.83702
C         52.59742        48.65763         1.67068
C         51.29754        47.96432         2.03448
C         52.57734        50.02827         1.39407
C         51.30528        50.75995         1.35875
C         52.57501        52.92973         1.22251
C         51.28718        52.15807         1.23448
C         52.44845        54.14734         0.34363
C         51.19964        54.94364         0.45738
C         52.36811        56.83664        -0.74564
C         51.15666        56.26400        -0.01001
C         52.41218        58.34539        -0.84941
C         51.13021        59.04549        -0.96796
C         52.34569        61.15088        -1.37833
C         51.12795        60.51517        -1.16056
C         53.86688        46.48330         2.06340
C         55.01436        48.59469         1.36037
C         53.83067        47.94537         1.67397
C         55.04127        49.99371         1.07796
C         53.80259        50.72303         1.12704
C         55.00827        52.78503         0.57777
C         53.81117        52.12004         0.90651
C         55.01047        54.18427         0.24665
C         53.70995        54.83176        -0.03484
C         54.91258        56.96036        -0.58831
C         53.64579        56.33647        -0.06971
C         54.87020        58.30160        -1.01195
C         53.59280        59.01151        -1.06267
C         54.78893        61.07183        -1.69850
C         53.59481        60.44130        -1.36964
C         56.24501        50.67439         0.80903
C         57.45178        52.77518         0.27128
C         56.25949        52.06606         0.54594
C         57.45814        54.17843         0.02293
C         56.18140        54.87746        -0.01775
C         57.33999        56.96358        -0.73638
C         56.13867        56.27454        -0.44369
C         57.29351        58.26887        -1.23790
C         56.06706        58.95513        -1.37583
C         57.17973        60.92826        -2.31343
C         56.03546        60.35708        -1.80340
C         58.64344        54.87743        -0.21091
C         59.73254        56.77505        -1.39437
C         58.68617        56.36236        -0.39559
C         59.69700        58.03535        -1.95147
C         58.58580        58.99067        -1.54021
C         59.63862        60.71192        -3.00622
C         58.34759        60.03396        -2.63677
C         60.76086        58.56963        -2.72295
C         60.76504        59.93475        -3.11266
O         36.16922        54.56669        -1.07268
O         48.49560        59.45706         1.36856
O         52.94475        54.05431        -1.02210
O         39.79263        48.89597         2.43356
O         30.49665        59.01286         0.11097
O         41.10836        51.32012         3.16276
O         35.47070        52.61461         1.85017
O         39.21036        58.98839         2.42940
O         43.09143        58.52090        -0.97379
O         50.15721        58.35312        -1.86982
O         54.92263        45.80163         1.37889
H         54.73023        45.82902         0.41950
O         42.69941        53.15772         3.68277
H         42.30283        52.33746         4.07713
O         41.14399        38.61778         0.82303
H         41.98654        38.22124         1.15826
O         49.15271        35.89095        -1.72462
H         49.22374        36.48707        -2.49776
O         52.77266        53.46430         2.57627
H         52.69913        52.71669         3.20643
O         51.02914        48.22280         3.43867
H         51.65300        47.69162         3.97515
O         33.73275        60.25175         1.86965
H         33.47808        61.01454         2.43005
O         43.80174        38.64470         1.46120
H         43.70396        39.34440         2.14286
O         36.38556        60.23246         2.33224
H         35.44694        59.92324         2.38969
O         36.90698        60.24532        -1.07755
H         36.05425        60.47418        -1.52486
O         45.36623        53.09145         3.44226
H         44.47994        53.31174         3.83013
O         48.58885        43.45392         3.33950
H         47.67302        43.08993         3.43815
O         57.95032        59.25774        -3.82037
H         57.72598        59.89130        -4.53345
O         41.58226        56.05659        -0.38279
H         41.97416        56.83870        -0.84030
O         47.74373        57.32007         2.56503
H         48.30057        58.11817         2.72293
O         30.79838        56.61588         1.09612
H         30.45650        57.53699         1.17409
O         46.77962        43.55125        -0.68549
H         46.86035        44.46358        -1.03526
O         59.02001        59.65351        -0.33124
H         59.17634        58.94184         0.33592
O         52.31495        56.36327        -2.10947
H         51.51834        56.77054        -2.51863
O         43.46317        34.19760        -3.86629
H         43.40220        33.74419        -3.00085
O         59.08501        56.98918         0.90485
H         58.44353        56.68242         1.58133
O         43.60672        59.20937         2.25281
H         43.41218        60.16117         2.37626
O         39.37032        47.11183        -1.84615
H         39.68605        46.29909        -2.31559
O         50.46007        48.31001        -0.17119
H         49.78225        48.75782        -0.71938
O         34.24105        60.00155        -1.74771
H         34.16766        59.24902        -2.37242
O         41.23906        55.43765         3.21089
H         41.58176        54.66809         3.72888
O         46.13876        42.27300         2.68552
H         46.06918        41.35260         3.01631
O         40.76054        44.73285        -2.07929
H         41.68712        45.05483        -2.11884
O         52.53689        41.64365         1.11569
H         52.48384        41.91043         0.17547
O         53.52329        56.76948         1.32118
H         54.28493        56.41157         1.82369
H         30.59472        56.62888        -2.29368
H         29.02855        59.06304        -2.89463
H         30.60873        62.61517        -1.09745
H         29.09798        61.41296        -2.45957
H         31.93290        52.38509        -0.70646
H         30.67302        54.46681        -0.57802
H         33.09108        62.67021        -0.18368
H         34.44329        48.13781        -0.51600
H         33.20625        50.19764        -0.53030
H         35.52916        62.30520        -0.15773
H         36.96241        43.94039        -0.73129
H         35.68707        46.01304        -0.53030
H         37.91060        62.76410         0.86006
H         39.37112        39.74921        -0.91197
H         38.17684        41.85081        -0.79591
H         40.30413        62.49541         0.40707
H         42.36157        36.42920        -3.22614
H         40.92082        38.01898        -2.07105
H         42.65899        62.40811         0.25051
H         45.98123        33.39237        -4.32150
H         44.62699        35.58111        -4.83892
H         45.02019        62.39448        -0.47379
H         47.80909        34.09497        -2.81566
H         47.84978        35.42575        -0.20934
H         47.36765        62.23971        -1.18657
H         49.96923        37.66153        -0.23845
H         51.13539        39.67482         0.71210
H         49.83442        62.22912        -1.52800
H         51.48325        41.83363         2.86679
H         53.49637        43.81796         1.77397
H         52.36041        62.23433        -1.57259
H         54.12338        46.43020         3.16094
H         55.95357        48.02201         1.34476
H         54.77637        62.13980        -1.96597
H         57.19221        50.11445         0.80792
H         58.40748        52.22987         0.25348
H         57.17723        61.97641        -2.65244
H         59.60111        54.33567        -0.17062
H         60.54783        56.07664        -1.64029
H         59.64772        61.76619        -3.32265
H         61.64470        57.94628        -2.92648
H         61.69424        60.36467        -3.51655
