         244
 CSIRO Nanostructure Databank - Neutral Graphene Oxide Data Set
C          1.21266         2.05436         0.01474
C          1.24016         3.41073         0.49387
C          2.35043         1.38980        -0.31856
C          2.39716         4.13331         0.59524
C          1.19662         6.33659         0.35152
C          1.21205         7.67563         0.17109
C          2.38111         5.61034         0.93581
C          2.41127         8.45628         0.38346
C          1.18284        10.62485         0.18040
C          1.18445        11.99901         0.08875
C          2.39184         9.88193         0.32203
C          2.39747        12.74657         0.07611
C          1.22256        14.96559        -0.17226
C          1.22857        16.38450        -0.32730
C          2.37512        14.19372        -0.15629
C          2.39622        17.12141        -0.42964
C          2.46596        18.55726        -0.55223
C          3.65895         1.96035         0.00720
C          3.69080         3.44444         0.48729
C          4.87381         1.45251        -0.62536
C          4.94224         4.19527         0.28508
C          3.67769         6.33791         0.64213
C          3.64641         7.75887         0.55761
C          4.93100         5.63898         0.52113
C          4.86282         8.52190         0.66754
C          3.61601        10.61598         0.42061
C          3.60424        12.02483         0.24435
C          4.84905         9.90621         0.65612
C          4.91392        12.70616         0.16683
C          3.65014        14.88230        -0.44108
C          3.67233        16.39624        -0.51637
C          4.93549        14.16155        -0.16465
C          4.91134        17.14323        -0.26158
C          3.65873        19.21758        -0.65387
C          4.93885        18.54670        -0.45146
C          6.04708         2.15261        -0.58817
C          6.09070         3.52559        -0.11929
C          7.27807         1.46422        -1.15445
C          7.39723         4.23762        -0.13255
C          6.12941         6.35465         0.54016
C          6.13749         7.78431         1.01577
C          7.40656         5.69524         0.24107
C          7.38503         8.56039         0.66111
C          6.08701        10.64445         1.14788
C          6.13043        12.09298         0.72625
C          7.37327         9.92570         0.79527
C          7.33070        12.78469         0.69067
C          6.09469        14.94241         0.34987
C          6.09035        16.45016         0.26263
C          7.38003        14.22753         0.47197
C          7.39223        17.12157         0.17529
C          6.14837        19.24902        -0.39423
C          7.43208        18.63117         0.10092
C          8.56638         2.20239        -0.89545
C          8.46470         3.69227        -1.09484
C          9.73008         1.56027        -0.66514
C          9.80922         4.43071        -0.98878
C          8.58177         6.53458        -0.07989
C          8.60654         7.87065         0.28459
C          9.81881         5.88856        -0.56193
C          9.85731         8.60100         0.29940
C          8.60157        10.68882         0.72951
C          8.58367        12.07066         0.79564
C          9.86658         9.98370         0.59547
C          9.88368        12.82093         0.59603
C          8.55218        14.95013         0.49030
C          8.54375        16.37929         0.23619
C          9.81855        14.29399         1.01507
C          9.79919        16.95816        -0.29397
C          8.68203        19.14883        -0.56569
C          9.83317        18.39841        -0.65597
C         11.02568         2.22984        -0.66719
C         11.07174         3.68903        -0.78291
C         12.17243         1.49824        -0.61177
C         12.26433         4.36655        -0.60059
C         11.10219         6.51505        -0.20713
C         11.09451         7.89812         0.15890
C         12.29804         5.79514        -0.34670
C         12.32045         8.58023         0.36000
C         11.08845        10.66885         0.78327
C         11.04870        12.10128         1.28219
C         12.30986         9.97416         0.69620
C         12.36710        12.86549         1.20436
C         11.13035        14.93023         0.60736
C         11.09701        16.19952        -0.13430
C         12.34575        14.28807         0.90244
C         12.33743        16.92898        -0.41747
C         11.07809        18.93471        -1.11879
C         12.29508        18.24143        -0.99315
C         13.51326         2.12621        -0.89663
C         13.54416         3.58472        -0.34403
C         14.65500         1.32542        -0.26502
C         14.79733         4.40120        -0.67620
C         13.55051         6.47809        -0.11598
C         13.55687         7.86203         0.21705
C         14.79692         5.79863        -0.26904
C         14.79027         8.53528         0.42232
C         13.52080        10.66183         1.01920
C         13.54148        12.05334         1.31280
C         14.77965         9.90684         0.97188
C         14.84228        12.63490         1.58005
C         13.56739        15.06452         0.62110
C         13.55181        16.30092        -0.11457
C         14.81629        14.69055         1.11035
C         14.79601        16.93150        -0.46353
C         13.54499        18.86165        -1.33315
C         14.76209        18.23719        -1.09578
C         15.93276         1.62885        -0.59576
C         16.01211         3.83392        -0.98981
C         17.23331         1.23310        -0.09435
C         17.29191         4.36578        -0.56827
C         16.00717         6.50549        -0.15180
C         16.01450         7.87414         0.20992
C         17.35327         5.87166        -0.45379
C         17.30351         8.56300         0.40405
C         16.07906        10.66809         0.97986
C         16.05714        12.12763         1.16701
C         17.32792        10.07322         0.39082
C         17.28959        12.90418         1.00733
C         16.06045        15.08536         0.53410
C         16.01851        16.28188        -0.23007
C         17.26802        14.30641         0.66696
C         17.27188        16.79265        -0.88183
C         16.01716        18.90206        -1.35138
C         17.23328        18.28429        -1.12620
C         18.33545         2.06920        -0.11287
C         18.34609         3.54417        -0.23115
C         19.63135         1.42206         0.12816
C         19.64191         4.16214         0.29691
C         18.39919         6.35386         0.55505
C         18.45854         7.86156         0.52894
C         19.70526         5.66938         0.27434
C         19.77047         8.48249         0.97518
C         18.51951        10.68830         1.19510
C         18.51142        12.19131         0.95175
C         19.79040         9.98255         0.81675
C         19.74233        12.86042         0.68999
C         18.51469        14.95868         0.35019
C         18.52544        16.29286        -0.21242
C         19.73084        14.28233         0.51851
C         19.71224        17.00284        -0.39178
C         18.47297        18.97077        -1.24891
C         19.68405        18.35391        -0.93311
C         20.81278         2.04470        -0.05500
C         20.82115         3.50670        -0.43072
C         22.11901         4.22320        -0.15035
C         20.91384         6.33647         0.23963
C         20.96194         7.77533         0.37378
C         22.14394         5.54785         0.09015
C         22.09299         8.52674         0.03808
C         20.94405        10.67474         0.45806
C         20.94462        12.12932         0.43267
C         22.11280         9.91732         0.10805
C         22.10705        12.85823         0.00058
C         21.03786        15.03757         0.57177
C         20.97772        16.44057         0.00679
C         22.16091        14.21603        -0.00298
C         22.12735        17.19115        -0.10096
C         20.91658        19.07906        -1.03598
C         22.09637        18.51852        -0.62074
O         14.84402        13.86700         2.24139
O         15.62882         9.98247         2.21239
O          3.72541        15.54486        -1.74531
O          3.83355         2.32172         1.41053
O         16.07958         2.59611        -1.63487
O          5.24496        13.21289        -1.21841
O         10.26356        16.08243        -1.38453
O          5.77200        15.73580         1.54407
O          9.85551         5.48354        -2.00597
O          7.84629         4.60419         1.20137
O         10.17787        12.79872        -0.82228
H          9.57770        13.42750        -1.27765
O         17.99820         5.96601         1.90484
H         18.53015         6.54094         2.50858
O          9.71145        14.44199         2.45405
H         10.06475        13.62351         2.88414
O         13.61063         2.14320        -2.33405
H         14.55558         2.30445        -2.56624
O          7.52953        19.07632         1.51513
H          6.85743        18.57520         2.02607
O         19.80112         8.17558         2.42947
H         19.30569         8.92172         2.86169
O          7.92300         3.90070        -2.42279
H          8.43694         4.64510        -2.82132
O         18.31347        10.43194         2.61746
H         17.34841        10.42225         2.81632
O         17.79324         6.40086        -1.73894
H         17.21270         6.02894        -2.43547
O         17.30579        16.18513        -2.22988
H         16.53331        16.53742        -2.72234
O          2.21940         5.67509         2.40287
H          2.08468         6.61787         2.63763
O          7.33965         0.11532        -0.68515
H          7.31472         0.12961         0.29352
O         17.41594        10.52041        -0.97747
H         18.14137        10.03212        -1.41965
O         20.55744         3.62520        -1.85634
H         21.29398         3.19645        -2.33893
O         10.71745        11.99488         2.71239
H         11.47694        11.56921         3.16439
O         19.74586         3.80987         1.70395
H         19.04623         4.32953         2.16886
O         21.34423        15.20174         2.00640
H         21.37273        14.30416         2.40140
O         13.62555         3.43164         1.10645
H         13.59273         4.32600         1.50775
O          6.16566         7.72658         2.50191
H          5.55777         7.00721         2.78022
O          5.98305        10.61931         2.60890
H          6.06726         9.67109         2.87848
H          0.23185         1.59822        -0.18159
H          0.26964         3.89408         0.67301
H          2.30977         0.42254        -0.84061
H          0.26667         5.78166         0.16499
H          0.30240         8.17845        -0.18607
H          0.21972        10.09832         0.14441
H          0.22446        12.52051        -0.02451
H          0.24456        14.48858        -0.01592
H          0.26153        16.90876        -0.31711
H          1.52297        19.12141        -0.61110
H          4.84707         0.46555        -1.11188
H          3.66765        20.30863        -0.79296
H          7.15674         1.40879        -2.27211
H          6.13300        20.34376        -0.50798
H          9.72247         0.46341        -0.56538
H          8.70212        20.20703        -0.86876
H         12.11225         0.40078        -0.55096
H         11.09497        19.97157        -1.48699
H         14.43422         0.60767         0.53713
H         13.53112        19.87178        -1.76911
H         17.38057         0.18934         0.22775
H         15.99409        19.95246        -1.68066
H         19.61084         0.34967         0.37967
H         18.46689        20.03478        -1.53136
H         21.76202         1.49988         0.06463
H         23.06106         3.65796        -0.23388
H         23.10837         6.05555         0.23769
H         22.99525         8.01345        -0.32502
H         23.04486        10.43368        -0.15344
H         22.98178        12.30156        -0.36306
H         23.07630        14.72376        -0.33980
H         23.09245        16.77285         0.21737
H         20.89570        20.10019        -1.44362
H         23.03508        19.08557        -0.69252
