         671
 CSIRO Nanostructure Databank - Neutral Graphene Oxide Data Set
C          6.11822        31.56280        -1.05301
C          6.23352        32.82395        -1.51476
C          8.41405        27.34142         0.33148
C          8.41526        28.75737         0.08971
C          7.24981        29.44735        -0.17311
C          8.57087        31.49618        -0.70556
C          7.22581        30.95223        -0.21544
C          8.54365        32.99646        -0.69357
C          7.41025        33.64473        -1.18877
C          8.56410        35.82535        -1.03861
C          7.40302        35.05149        -1.33575
C          8.65800        37.19558        -1.38291
C         10.81368        23.15457         1.23764
C         10.81248        24.56131         1.21924
C          9.59621        25.26135         0.95522
C         10.91454        27.32484         0.54077
C          9.57499        26.63682         0.65682
C         10.85561        28.82462         0.65242
C          9.67952        29.49722         0.25877
C         10.88430        31.63441         0.35872
C          9.71683        30.88391         0.05577
C         10.90148        33.05361         0.22911
C          9.58269        33.77345         0.04828
C         10.88012        35.90203        -0.23485
C          9.69854        35.18910        -0.44349
C         10.93679        37.30030        -0.47381
C          9.81036        37.95044        -1.08756
C         10.98387        40.12721        -1.04880
C          9.90099        39.33132        -1.44413
C         11.07678        41.48943        -1.35474
C         13.27915        18.94320         0.23458
C         13.21780        20.45824         0.00504
C         12.03262        21.09985         0.69309
C         13.30767        23.22349         1.04157
C         12.02727        22.41784         1.08267
C         13.26923        24.49002         1.93478
C         12.02774        25.31288         1.52034
C         12.95061        27.58648         1.95477
C         11.95703        26.69927         1.44672
C         13.17447        28.89024         1.50705
C         12.02916        29.55487         0.93154
C         13.25135        31.70297         1.12893
C         12.06162        30.97057         0.81105
C         13.26836        33.11025         0.95817
C         12.07758        33.75529         0.48494
C         13.32811        35.98960         0.52414
C         12.11892        35.18591         0.12623
C         13.15977        37.45351         0.57824
C         12.06551        38.06345        -0.01154
C         13.38728        40.16450        -0.29203
C         11.97391        39.58073        -0.03713
C         13.35410        41.66719        -0.39978
C         12.18682        42.29805        -0.92496
C         13.32490        44.46747        -0.73619
C         12.19464        43.69529        -1.10027
C         13.35642        45.87739        -0.93944
C         15.68844        14.61950        -0.10721
C         15.60892        16.01203         0.11262
C         14.41398        16.72687         0.31906
C         15.71596        18.72666         0.90682
C         14.39333        18.16823         0.46017
C         15.65829        20.84165        -0.37516
C         14.52099        21.18367         0.29734
C         15.78889        23.15887         1.16582
C         14.53139        22.31879         1.31816
C         15.79305        24.52930         1.31724
C         14.60282        25.22654         1.75513
C         15.77390        27.42884         1.67977
C         14.76330        26.54229         2.15929
C         15.68456        28.84993         1.66820
C         14.43770        29.58711         1.65777
C         15.68014        31.74858         1.69036
C         14.45692        31.00023         1.49611
C         15.63829        33.22121         1.77737
C         14.44126        33.88165         1.34579
C         15.49327        36.05779         1.75544
C         14.42078        35.30308         1.25652
C         15.43722        37.54470         1.77975
C         14.24260        38.24581         1.19738
C         15.70630        40.34762         0.80609
C         14.38380        39.67967         0.75045
C         15.82520        41.67036         0.07792
C         14.51071        42.40754        -0.10555
C         15.60948        44.63349         0.32808
C         14.48893        43.80471        -0.23701
C         15.73540        45.99667        -0.30533
C         14.55424        46.62954        -0.79607
C         15.79255        48.74322        -1.10875
C         14.59821        48.00476        -1.16127
C         15.82361        50.13868        -1.38315
C         18.16772        10.32848        -1.02861
C         18.11274        11.76113        -0.73898
C         16.83348        12.53562        -1.01564
C         18.11212        14.63008        -0.57079
C         16.89508        13.96878        -0.52329
C         18.15655        16.04719        -0.19123
C         16.85355        16.78433        -0.18059
C         18.17485        18.98096         0.02623
C         16.89689        18.25947         0.09725
C         18.23475        20.44524         0.08638
C         17.01353        21.31139         0.01961
C         18.33451        23.21750         0.89924
C         17.07420        22.41386         1.06385
C         18.26996        24.66704         0.97074
C         17.02975        25.28474         1.16419
C         18.20337        27.56546         0.91326
C         16.92373        26.75243         1.08169
C         18.15175        28.96953         1.31065
C         16.91324        29.60955         1.54625
C         18.14471        31.71148         2.22169
C         16.88186        31.03340         1.74053
C         18.13507        33.24535         1.84618
C         16.79136        33.98195         2.15484
C         17.77002        36.32179         2.55609
C         16.67813        35.41697         2.21481
C         17.98721        37.61659         2.11527
C         16.72896        38.35342         1.86897
C         18.09191        40.45775         1.62291
C         16.79912        39.72486         1.32242
C         18.19028        41.81165         0.94232
C         16.96391        42.51996         0.59578
C         18.11217        44.70546         0.72915
C         16.91143        43.88525         0.48720
C         18.16467        46.07962         0.19133
C         16.95994        46.71113        -0.25853
C         18.24753        48.74974        -0.74537
C         17.00754        48.06951        -0.70373
C         18.32892        50.12738        -1.37967
C         17.02112        50.89777        -1.33807
C         18.19712        53.10407        -1.12810
C         16.99974        52.28472        -1.38212
C         18.27769        54.53250        -1.50566
C         20.68286         6.10845        -1.30436
C         20.64552         7.52119        -1.30538
C         19.42615         8.23825        -1.27085
C         20.64487        10.39161        -1.13600
C         19.38679         9.65112        -1.12107
C         20.66591        11.80076        -1.06921
C         19.41579        12.52532        -0.77300
C         20.67181        14.70521        -0.89488
C         19.35031        13.99183        -1.16090
C         20.70081        16.10650        -0.66749
C         19.44160        16.80651        -0.29894
C         20.70071        19.04730        -0.42989
C         19.37157        18.29169        -0.42929
C         20.74257        20.43270         0.07081
C         19.50285        21.02192         0.72819
C         20.82107        23.23352         0.94907
C         19.50119        22.53467         0.74203
C         20.75893        24.72151         0.67634
C         19.49274        25.40781         0.84215
C         20.66369        27.55606         0.73167
C         19.48610        26.82644         0.87618
C         20.61856        29.00289         0.83029
C         19.39718        29.69531         1.34762
C         20.75783        31.65184         2.08827
C         19.42829        30.99373         1.78307
C         20.66064        33.08308         1.54484
C         19.52283        33.78848         2.33576
C         20.68359        36.05171         1.92451
C         19.69644        35.25974         2.38480
C         20.64391        37.53127         2.30662
C         19.30929        38.27105         1.96752
C         20.63233        40.23866         1.11119
C         19.34726        39.59119         1.59562
C         20.65707        41.76245         1.11070
C         19.40118        42.46968         0.92350
C         20.66816        44.64606         0.52378
C         19.43091        43.94419         0.87551
C         20.64602        45.98782         0.23727
C         19.40304        46.73857         0.06860
C         20.74135        48.76696        -0.75430
C         19.42977        48.08856        -0.40630
C         20.68041        50.27225        -0.59449
C         19.52491        50.90589        -0.88285
C         20.76588        53.07886        -1.05602
C         19.47228        52.39029        -0.82504
C         20.75925        54.39710        -1.76175
C         19.47854        55.18024        -1.67229
C         20.75577        57.29685        -1.95606
C         19.55519        56.59428        -1.91397
C         20.78702        58.70438        -2.20676
C         23.13925         3.31239        -1.11836
C         21.93669         3.97854        -1.21768
C         23.14135         6.12924        -1.13670
C         21.90288         5.40502        -1.22974
C         23.10186         7.55001        -1.18113
C         21.89218         8.24458        -1.29237
C         23.06620        10.43326        -1.43887
C         21.86718         9.69407        -1.30854
C         23.09214        11.82908        -1.33706
C         21.87528        12.53503        -1.17558
C         23.13625        14.67499        -0.96120
C         21.87341        13.98640        -1.02139
C         23.15253        16.08967        -0.72741
C         21.91750        16.81376        -0.59193
C         23.14013        18.94645        -0.28446
C         21.94861        18.25762        -0.40936
C         23.18951        20.39224        -0.15864
C         21.95508        21.09664         0.13480
C         23.16727        23.22427         0.07515
C         22.00847        22.53279         0.33034
C         23.15542        24.72051        -0.11429
C         21.89674        25.40971         0.34071
C         23.23093        27.52548         0.63816
C         21.90259        26.90478         0.16469
C         23.21363        28.88410         1.02608
C         22.00701        29.68222         0.99840
C         23.20188        31.72140         1.75826
C         22.01497        31.02635         1.55930
C         23.23041        33.15536         1.77113
C         21.97083        33.87138         1.49654
C         23.21992        36.06973         1.83277
C         21.95241        35.37750         1.51839
C         23.15972        37.49015         1.92244
C         21.92981        38.20977         1.85333
C         23.14495        40.29164         1.37844
C         21.91564        39.59457         1.60798
C         23.12579        41.80282         1.45711
C         21.84021        42.44067         1.00610
C         23.16905        44.59956         0.79652
C         21.93206        43.82075         0.38846
C         23.19949        46.00523         0.38742
C         21.93209        46.69496        -0.00099
C         23.23887        48.84124        -0.33326
C         21.89438        48.21059         0.08178
C         23.20436        50.34686        -0.23016
C         21.88550        51.07235        -0.10135
C         23.21423        53.09227        -0.95619
C         21.93384        52.43421        -0.76665
C         23.19752        54.48121        -1.32887
C         22.02364        55.16516        -1.56057
C         23.19649        57.32487        -1.57776
C         22.03312        56.61269        -1.73034
C         23.20382        58.82514        -1.52919
C         21.96432        59.44186        -2.13869
C         23.26480        61.44492        -2.67548
C         22.03259        60.79939        -2.53888
C         24.35481         4.02932        -1.02130
C         25.72966         6.10666        -0.94331
C         24.37599         5.41839        -1.02422
C         25.66970         7.62599        -0.89451
C         24.36037         8.31851        -1.02933
C         25.60349        10.40468        -1.95633
C         24.33765         9.69297        -1.61668
C         25.49228        11.94090        -2.22665
C         24.45115        12.49043        -1.18749
C         25.58984        14.69335        -1.11771
C         24.36773        13.99263        -1.13352
C         25.61128        16.09088        -0.81227
C         24.39125        16.75735        -0.57005
C         25.68753        18.92889        -0.21857
C         24.39424        18.18062        -0.19646
C         25.65624        20.38992        -0.61208
C         24.38839        21.09819        -0.22491
C         25.65493        23.22351        -0.09979
C         24.42923        22.53569        -0.12616
C         25.70621        24.74488        -0.10984
C         24.42622        25.31285         0.55489
C         25.75824        27.55239         0.53005
C         24.42635        26.81397         0.59817
C         25.70080        28.82157         1.33153
C         24.43576        29.44905         1.60874
C         25.73782        31.68738         1.92455
C         24.44966        30.97136         1.97251
C         25.71387        33.15173         1.84560
C         24.43931        33.87715         1.81610
C         25.72137        36.04652         2.02500
C         24.41337        35.31338         1.83275
C         25.64090        37.47052         1.57130
C         24.45823        38.26295         2.03817
C         25.56475        40.27144         0.88397
C         24.36182        39.62556         1.40661
C         25.59774        41.80078         0.73541
C         24.37548        42.51825         1.02334
C         25.68076        44.61685         0.92771
C         24.39810        43.92470         0.96194
C         25.68305        46.09204         0.99997
C         24.38939        46.81952         0.77958
C         25.70525        48.95894         0.19550
C         24.41198        48.27234         0.44563
C         25.67262        50.30243        -0.22452
C         24.39945        51.02013        -0.35116
C         25.69118        53.11624        -0.83236
C         24.41712        52.43334        -0.68358
C         25.72975        54.47800        -1.15699
C         24.49072        55.19675        -1.60735
C         25.74618        57.32639        -1.58937
C         24.46797        56.64125        -1.13040
C         25.69292        58.69717        -1.96868
C         24.50145        59.42087        -2.04627
C         24.47440        60.76228        -2.49203
C         26.89749         8.40620        -1.19765
C         28.11242        10.47337        -1.72186
C         26.87924         9.71978        -1.55960
C         28.06721        11.81954        -1.82333
C         26.85200        12.66642        -2.08915
C         28.02307        14.72359        -1.40805
C         26.82844        14.02026        -1.40908
C         28.07129        16.13434        -1.16425
C         26.86277        16.80678        -0.84086
C         28.11364        18.90693        -0.66787
C         26.91188        18.19966        -0.60065
C         28.15459        20.27014        -0.01263
C         26.89789        21.09867        -0.17620
C         28.13843        23.19270         0.20733
C         26.90395        22.48539        -0.02638
C         28.17137        24.57971         0.45828
C         26.96241        25.34676         0.49667
C         28.22191        27.31829         1.23695
C         26.98505        26.69691         0.84923
C         28.21549        28.68529         1.83790
C         26.90487        29.45724         1.86778
C         28.17065        31.65009         1.58724
C         26.90536        30.95101         1.93083
C         28.23158        33.13324         1.89057
C         26.91378        33.84739         1.73106
C         28.09726        35.91114         1.15663
C         26.93287        35.27141         1.55430
C         28.03246        37.30945         0.67088
C         26.77351        38.10935         0.93334
C         28.03421        40.28717         0.75946
C         26.86207        39.58579         0.91799
C         28.07903        41.74150         0.76669
C         26.89957        42.48585         0.80035
C         28.17820        44.62228         0.81252
C         26.89774        43.92808         0.88348
C         28.21796        46.05010         0.57032
C         26.96783        46.83149         0.71724
C         28.11405        48.86458        -0.16314
C         26.92450        48.23740         0.23653
C         28.12488        50.26235        -0.39480
C         26.90220        50.99057        -0.42121
C         28.16138        53.08261        -0.83928
C         26.91772        52.40050        -0.68114
C         28.16536        54.47549        -1.09406
C         26.96148        55.18533        -1.25769
C         26.92612        56.59958        -1.57275
C         28.88673        12.77725        -2.64118
C         30.41768        14.86490        -2.17145
C         29.28521        13.97070        -1.74370
C         30.46675        16.18427        -1.84086
C         29.28400        16.86924        -1.32829
C         30.56711        19.01026        -1.10306
C         29.31403        18.25685        -1.04526
C         30.60518        20.37391        -0.73249
C         29.31442        21.12312        -0.52905
C         30.64617        23.21350        -0.06659
C         29.42803        22.41083         0.29669
C         30.65976        24.57987         0.28059
C         29.42752        25.26040         0.63063
C         30.75011        27.26693         1.26908
C         29.43302        26.60627         1.06712
C         30.80044        28.74125         1.62634
C         29.52972        29.49650         2.03458
C         30.72031        31.67877         1.37649
C         29.45063        30.90105         1.45368
C         30.65843        33.08753         1.17838
C         29.41140        33.82565         1.24791
C         30.55542        35.95919         0.70867
C         29.35276        35.19796         1.00892
C         30.58446        37.33504         0.62639
C         29.30944        38.07074         0.48198
C         30.58917        40.23761         1.00739
C         29.31479        39.56385         0.54426
C         30.57872        41.71922         0.71383
C         29.36316        42.42469         0.73764
C         30.65345        44.55246         0.77968
C         29.36099        43.86587         0.75149
C         30.67305        46.09310         0.47615
C         29.38213        46.71521         0.22096
C         30.62604        48.82965        -0.42759
C         29.33461        48.04303        -0.50166
C         30.61177        50.18517        -0.50203
C         29.37802        50.96068        -0.55679
C         29.38138        52.33193        -0.74645
C         31.75219        16.95996        -2.07923
C         32.94786        19.10904        -1.59442
C         31.75964        18.38129        -1.55076
C         33.00322        20.47534        -1.21293
C         31.79978        21.11880        -0.79672
C         33.04981        23.25072        -0.51582
C         31.81774        22.53764        -0.47324
C         33.08708        24.60226        -0.11438
C         31.90418        25.28044         0.25842
C         33.13665        27.39767         0.54343
C         31.95072        26.65587         0.66912
C         33.09663        28.83381         0.70441
C         31.98137        29.51398         1.16675
C         33.13170        31.71750         0.96212
C         31.93492        30.97768         1.18374
C         33.08829        33.14581         0.95498
C         31.85186        33.80444         0.92375
C         33.04633        35.97837         0.37567
C         31.77332        35.18173         0.31821
C         33.06521        37.37455         0.32422
C         31.82146        38.09981         0.47830
C         33.07433        40.21744         0.45326
C         31.83496        39.49211         0.56494
C         33.06307        41.65088         0.44232
C         31.83732        42.39106         0.54978
C         33.09543        44.50308         0.25962
C         31.87877        43.80233         0.50997
C         33.06871        45.92572        -0.03973
C         31.92425        46.66644        -0.04944
C         31.90391        48.05414        -0.66510
C         34.21535        21.22831        -1.28675
C         35.48038        23.33601        -1.03962
C         34.26512        22.57836        -0.94099
C         35.56654        24.66280        -0.62104
C         34.41690        25.25161         0.16528
C         35.56935        27.45353         0.02073
C         34.36252        26.75431         0.14012
C         35.59576        28.86236         0.27992
C         34.25117        29.55851         0.06562
C         35.98540        30.77336         2.17174
C         34.25487        31.06132         0.26746
C         35.57032        33.44533         1.30527
C         34.30420        33.93604         0.83099
C         35.52344        35.92372         0.03913
C         34.26858        35.26605         0.42447
C         35.54444        37.39175         0.11704
C         34.33144        38.08020         0.28846
C         35.53983        40.25190         0.33924
C         34.31047        39.52414         0.36704
C         35.51912        41.63283         0.27479
C         34.29217        42.36152         0.29445
C         34.28614        43.77379         0.17190
C         36.75594        25.41851        -0.73058
C         38.01829        27.51086        -0.36363
C         36.81276        26.77423        -0.32884
C         38.06682        28.85747         0.06657
C         36.83051        29.49541         0.45316
C         38.05597        31.65109         0.97646
C         36.93599        30.77900         1.14147
C         38.07315        33.15608         1.35903
C         36.80325        33.86935         0.87214
C         38.12598        35.88173        -0.14490
C         36.82221        35.10434         0.04513
C         38.00017        37.33896         0.26626
C         36.83088        38.04687         0.24036
C         36.87261        39.54473         0.48611
C         39.24086        29.64413         0.13639
C         40.49376        31.74012         0.53348
C         39.23313        31.01283         0.49639
C         40.54360        33.07489         0.76465
C         39.31218        33.85139         0.82361
C         39.32404        35.13567         0.38641
O         29.37120        38.89661        -0.74542
O         24.32189        29.96642         3.00242
O         18.74267        44.54314         2.03590
O         25.12939        18.53931         1.05844
O         25.38660        40.90855        -0.43020
O         18.79810        35.78195         3.32983
O         27.42981        28.72967         3.07423
O         36.02895        35.19913        -1.17066
O         18.79857        12.17160         0.50000
O         18.95947        16.34892         1.01841
O         13.19420        35.46175        -0.85063
O         22.78777        46.16221        -1.06121
O         35.37237        30.21227         2.98171
O         15.86725        19.28303         1.98780
O         13.80062        39.36356         2.05138
O         24.97590         8.16337         0.29755
O         27.09436        37.48593        -0.42505
O         31.06300        27.72286         2.65066
O         20.81338        53.94135        -3.27140
O         35.09245        31.71774        -0.36548
O         30.79533        45.55631         1.82870
O         27.61843        13.05870        -3.37187
O         19.92652        18.84527        -1.67612
O         15.83245        38.16567         3.03396
O         22.01664        34.67756         0.23969
O         24.12330        47.83750         1.81205
O         17.33173        27.27189        -0.23262
O         18.69441        52.91423         0.31140
O         24.87289         9.66346        -3.00290
O         21.26152        29.67528        -0.30301
O         13.76571        27.09240         2.98667
O         26.45691        46.66238         2.09612
O         16.59052        17.71132        -1.27724
O         17.92343        21.29284        -1.11777
O         28.62671        31.15431         0.27055
O         23.55969        48.54837        -1.71622
H         22.71296        48.51068        -2.22896
O         25.94132        36.11068         3.49853
H         25.43373        36.89865         3.82827
O         20.73902        37.61093         3.75996
H         19.92974        37.18346         4.12417
O         35.47378        32.64548         2.44835
H         34.52235        32.54951         2.68217
O         15.61446        20.08644        -1.51026
H         16.52628        20.06485        -1.88875
O         15.19497        44.91600         1.72414
H         14.37177        45.44862         1.68040
O         32.04223        16.99070        -3.49082
H         31.30276        17.44707        -3.94229
O         20.33366        32.82645         0.17321
H         20.60549        33.61156        -0.35710
O         24.37738        24.82066         1.92633
H         25.11282        25.23611         2.42533
O         19.68408        33.48339         3.74564
H         19.05860        34.06929         4.23023
O         13.43418        23.72278        -0.31460
H         13.36133        22.95378        -0.92342
O         19.59475        20.55932         2.09887
H         20.14075        21.21409         2.59223
O         25.77427        25.18967        -1.50014
H         24.89004        24.98238        -1.90882
O         29.65350        22.08742         1.71620
H         29.74787        22.93780         2.19639
O         16.22589        41.31037        -1.28803
H         15.54510        40.68012        -1.63209
O         18.08999        33.39963         0.41429
H         17.41869        32.78232         0.05412
O         20.62905        39.92233        -0.33153
H         21.36052        40.42134        -0.75640
O         34.71510        24.90145         1.57626
H         34.79359        23.92409         1.61807
O         24.65135        38.51829         3.51037
H         23.82087        38.92986         3.83960
O         21.69432        51.31663         1.32440
H         20.81998        51.74796         1.43833
O         14.44609        21.78394         2.65139
H         15.06328        21.01463         2.70030
O         26.53230         5.70468        -2.06655
H         26.07565         5.97698        -2.88886
O         28.27325        19.92549         1.38882
H         28.59802        20.71397         1.88703
O         24.98499        12.15763        -3.53663
H         24.70424        11.28061        -3.89222
O         20.93135        31.50246         3.52724
H         21.72757        32.00187         3.80750
O          7.08569        31.44673         1.15701
H          6.24325        31.10230         1.52111
O         16.68302        12.56258        -2.45386
H         15.88950        13.09556        -2.66971
O         28.90925        21.52870        -1.87029
H         29.65154        22.02692        -2.27351
O         22.08807        43.54209        -1.04844
H         22.32368        44.40735        -1.47185
O         11.39355        27.07097        -0.82463
H         11.56382        26.10704        -0.90347
O         24.98312        12.05417         0.10013
H         24.39076        12.38285         0.80874
O         13.11703        24.10885         3.31175
H         13.15194        24.92714         3.85112
O         37.86977        40.15952        -0.33657
H         37.66869        39.95287        -1.27209
O         17.19034        21.69312         2.33397
H         17.05208        22.33383         3.06285
O          9.01825        33.86812         1.42378
H          8.44677        33.07513         1.56235
O         31.56955        34.89953        -1.12179
H         31.36717        35.75060        -1.56705
O         29.67946        29.75936         3.44509
H         29.88339        28.90025         3.87769
O         18.05521        31.56702         3.66536
H         18.97449        31.60243         4.02543
O         12.91692        20.60077        -1.42422
H         13.70060        20.25031        -1.90892
O          8.70265        31.06549        -2.09189
H          9.60234        31.30089        -2.40054
O         21.88560        27.20577        -1.28086
H         21.75260        28.18659        -1.35310
O         17.96352        40.81105         3.04487
H         17.17323        41.38300         3.14997
O         23.20969        24.90967        -1.56133
H         22.74932        25.76404        -1.77416
O         25.70152        20.35966        -2.08467
H         25.94628        21.25699        -2.39739
O         21.57846        48.56992         1.43529
H         22.38475        48.43286         1.99033
O         30.55619        40.11399         2.47232
H         31.27373        40.67369         2.83815
O         21.05963        23.09401         2.40661
H         21.93955        23.48842         2.59797
O         23.14304        42.01425         2.93585
H         22.93121        42.95833         3.10431
O         24.57738        55.26797        -3.07357
H         24.69596        54.35370        -3.40745
O         38.17201        33.26206         2.80351
H         37.32332        32.96905         3.19749
O         32.03297        47.90603        -2.09712
H         31.15991        47.58582        -2.42596
O         28.51375        33.18077         3.33605
H         28.20922        34.04953         3.67625
O         29.76811        13.33155        -0.51302
H         29.95915        14.04049         0.13691
O         13.88523        39.64726        -1.56540
H         13.24149        39.89820        -2.26267
O         19.17974        14.02761        -2.61354
H         18.34197        13.54634        -2.82643
O         24.45369        56.66130         0.31799
H         24.13044        57.55212         0.59006
O         34.02141        29.43065        -1.37928
H         34.60251        30.09501        -1.81321
O         20.95582        48.48158        -2.16629
H         20.21871        48.92727        -2.66086
O         18.60049        49.87569        -2.81185
H         17.80119        49.44835        -3.18911
O         11.45001        40.05449         1.22087
H         12.09197        39.80105         1.92975
O         20.90499        55.12234        -4.08033
H         21.87453        55.31976        -4.09415
O         38.40619        35.96487        -1.57618
H         37.54048        35.83174        -2.03403
O         25.94903        27.92255        -0.88434
H         25.98400        27.06363        -1.38333
O         29.19553        47.68871        -1.93889
H         28.93134        48.50651        -2.41379
O         23.17210        59.17708        -0.08996
H         23.16649        60.15723        -0.03626
H          5.20658        30.97641        -1.24746
H          5.41617        33.28969        -2.08643
H          7.45011        26.80863         0.30816
H          6.30076        28.89581        -0.27255
H          6.51504        35.55103        -1.75016
H          7.80474        37.68648        -1.87415
H          9.85399        22.62250         1.13749
H          8.65700        24.68735         0.92126
H          9.09270        39.77755        -2.04385
H         10.27764        41.96751        -1.94200
H         12.35136        18.41641        -0.05197
H         11.07924        20.54721         0.66083
H         11.31266        44.19550        -1.52599
H         12.45809        46.37851        -1.32838
H         14.77380        14.01269        -0.02009
H         13.45528        16.18492         0.29248
H         13.67241        48.49681        -1.49383
H         14.86777        50.66641        -1.52391
H         17.22693         9.78064        -1.18923
H         15.94775        12.00539        -0.56580
H         16.03137        52.79987        -1.48641
H         17.33905        55.10741        -1.55381
H         19.73818         5.54472        -1.32837
H         18.47793         7.67984        -1.28252
H         18.61147        57.15318        -2.01606
H         19.85668        59.20415        -2.51986
H         23.16210         2.21368        -1.11134
H         20.99214         3.42027        -1.28872
H         23.28762        62.48711        -3.02403
H         21.10926        61.32047        -2.83221
H         25.30257         3.47734        -0.94882
H         26.26667         5.73792        -0.03028
H         26.63002        59.19354        -2.27094
H         25.42116        61.25884        -2.75150
H         27.86506         7.92011        -0.99905
H         29.06823         9.93092        -1.77327
H         29.12680        55.00197        -1.18980
H         27.87641        57.10338        -1.81160
H         29.69352        12.38477        -3.30158
H         31.31808        14.37959        -2.58052
H         31.56402        50.73670        -0.55801
H         30.33893        52.86441        -0.85029
H         32.60050        16.39760        -1.60529
H         33.86416        18.62073        -1.95824
H         34.00563        46.38114        -0.39558
H         32.79206        48.63871        -0.31386
H         35.13221        20.72363        -1.62685
H         36.36634        22.84755        -1.47422
H         36.46965        42.18359         0.22246
H         35.23616        44.29915        -0.00446
H         37.65543        24.94662        -1.15522
H         38.94142        27.02058        -0.70723
H         38.94137        37.90258         0.36449
H         37.20883        39.70575         1.55007
H         40.20433        29.18426        -0.13154
H         41.41804        31.17006         0.36061
H         41.50263        33.61235         0.72783
H         40.29367        35.55909         0.07548
