         344
 CSIRO Nanostructure Databank - Neutral Graphene Oxide Data Set
C          1.21799         3.45495         0.37917
C          0.08700         4.24815         0.25352
C          1.25450         6.28719         1.18635
C          0.02517         5.58537         0.66265
C          1.22055         7.73765         0.76795
C          0.07976         8.52597         1.10860
C          1.08741        10.53021         0.01891
C          0.00900         9.86529         0.83785
C          1.16286        12.04123         0.10265
C         -0.07125        12.78880         0.09268
C          1.11857        14.86506        -0.60799
C         -0.10883        14.12095        -0.15027
C          1.10867        16.34328        -0.26580
C         -0.06777        17.06484        -0.22944
C          1.08677        19.19889         0.10481
C         -0.07492        18.47917        -0.05287
C          1.09007        20.63467         0.26957
C          0.02078        21.34057         0.79356
C          1.23803        23.48049         0.69589
C          0.08550        22.73944         0.96674
C          1.32109        24.88036         1.07148
C          0.30165        25.57976         1.70908
C          1.51249        27.71589         1.69838
C          0.38723        26.96073         2.00671
C          1.57360        29.13859         1.84643
C          3.74334         3.40727         0.29975
C          2.51029         4.04989         0.88188
C          3.65807         6.27576         0.11110
C          2.44312         5.54176         0.58061
C          3.67569         7.73541         0.22043
C          2.41233         8.42911         0.36203
C          3.66444        10.57576         0.47997
C          2.39476         9.82468         0.22464
C          3.63979        12.02823         0.09002
C          2.37217        12.72736         0.01925
C          3.57220        14.88668        -0.09924
C          2.39293        14.16916        -0.17166
C          3.56427        16.32907        -0.11156
C          2.36550        17.01987        -0.10418
C          3.59941        19.18917        -0.33908
C          2.40586        18.48391         0.26452
C          3.53420        20.63517        -0.63213
C          2.25592        21.38945        -0.22042
C          3.59126        23.46529        -0.16876
C          2.39371        22.81266         0.11925
C          3.59295        24.94232        -0.08877
C          2.60936        25.55566         0.86072
C          3.79387        27.84162         0.61599
C          2.71372        27.03156         1.19696
C          3.81875        29.19853         0.84706
C          2.69853        29.83747         1.48605
C          6.05556         3.32075        -0.60708
C          4.85861         4.08822        -0.08253
C          6.09002         6.24293        -0.32979
C          4.92032         5.54117        -0.08789
C          6.09547         7.69620        -0.30172
C          4.87947         8.42029        -0.00544
C          6.08070        10.55395        -0.21150
C          4.90175         9.84990         0.02142
C          6.08867        12.00902        -0.15359
C          4.83430        12.70878         0.00598
C          6.10096        14.88152        -0.26657
C          4.86671        14.19500         0.25752
C          5.99293        16.33059        -0.66184
C          4.87447        17.06953         0.08784
C          6.02495        19.18740        -0.69555
C          4.81029        18.52056        -0.36925
C          6.00441        20.62570        -1.15492
C          4.78824        21.39736        -0.70911
C          6.04319        23.54187        -0.81621
C          4.79052        22.78692        -0.61399
C          6.07658        24.95949        -0.74759
C          4.81116        25.71029        -0.48899
C          6.19003        27.87814        -0.19596
C          4.87844        27.17593        -0.14578
C          6.31750        29.15278         0.62040
C          5.04250        30.02475         0.49033
C          8.54436         3.39434        -0.50962
C          7.36040         4.07711        -0.51363
C          8.52283         6.23329        -0.73778
C          7.35528         5.53889        -0.53908
C          8.50563         7.70921        -1.04596
C          7.27531         8.40796        -0.52932
C          8.51797        10.53141        -0.64088
C          7.29822         9.83178        -0.46812
C          8.47068        11.99143        -0.78846
C          7.25687        12.72180        -0.39358
C          8.55014        14.88516        -0.53902
C          7.27695        14.17717        -0.42511
C          8.52793        16.35005        -0.53335
C          7.30089        17.07340        -0.60415
C          8.49635        19.23103        -0.83947
C          7.26687        18.49261        -0.69293
C          8.52593        20.64056        -0.90972
C          7.29158        21.37778        -0.91297
C          8.54076        23.47647        -1.19414
C          7.26243        22.77734        -0.94517
C          8.55015        25.00812        -1.16494
C          7.30318        25.70257        -0.79786
C          8.63939        27.77220        -0.49544
C          7.40318        27.08104        -0.48608
C          8.70070        29.22376        -0.21085
C          7.57236        29.89153         0.27908
C         10.99523         3.41944        -0.36375
C          9.81296         4.07565        -0.57322
C         11.03084         6.28784        -0.54277
C          9.81823         5.51652        -1.02741
C         10.99842         7.72581        -0.54652
C          9.78861         8.43450        -0.70779
C         11.00794        10.60565        -0.54910
C          9.76720         9.85042        -0.65652
C         11.01264        11.99089        -0.63113
C          9.77977        12.74972        -0.86847
C         11.03700        14.88603        -0.47975
C          9.76511        14.20917        -0.61130
C         10.98956        16.34431        -0.09051
C          9.73846        17.03874        -0.55238
C         11.06890        19.20396        -0.84648
C          9.74427        18.46073        -0.89978
C         11.03068        20.66551        -0.72379
C          9.79463        21.35532        -0.86011
C         11.03182        23.48886        -0.86834
C          9.80947        22.76819        -0.95327
C         11.05469        24.92293        -0.93060
C          9.84026        25.68356        -0.95324
C         11.14086        27.81364        -0.56897
C          9.84120        27.06607        -0.71933
C         11.04252        29.25227        -1.13193
C          9.89361        29.93009        -0.43910
C         13.46385         3.47110        -0.22170
C         12.25174         4.13207        -0.33142
C         13.44657         6.27976        -0.05799
C         12.21587         5.58039        -0.30226
C         13.37040         7.73431         0.20142
C         12.19925         8.47561        -0.27953
C         13.48709        10.57665        -0.05808
C         12.24016         9.87185        -0.29104
C         13.46122        12.09160        -0.02969
C         12.31381        12.73034        -0.82071
C         13.50768        14.91672        -0.27037
C         12.24681        14.21625        -0.49658
C         13.50002        16.36177        -0.19074
C         12.28149        17.08192        -0.33727
C         13.50175        19.21184        -0.31486
C         12.29326        18.47469        -0.45353
C         13.49215        20.64228        -0.38900
C         12.25502        21.35795        -0.58352
C         13.49212        23.49216        -0.54016
C         12.26417        22.78478        -0.66347
C         13.48855        24.91031        -0.59721
C         12.30154        25.60179        -0.81236
C         13.59618        27.79951        -0.81915
C         12.32611        27.06699        -1.16391
C         13.57212        29.24835        -0.86515
C         12.37345        29.94580        -0.96940
C         15.92469         3.52204        -0.02975
C         14.70409         4.18607        -0.14958
C         15.93454         6.44458        -0.20756
C         14.66213         5.62806        -0.10755
C         15.88339         7.62372         0.80791
C         14.61790         8.47678         0.59324
C         15.95368        10.61616         0.34534
C         14.66300         9.92437         0.28990
C         15.99134        12.04900         0.15944
C         14.79366        12.74062        -0.43741
C         15.94538        14.93469         0.11655
C         14.72889        14.23345        -0.16519
C         15.94575        16.36888         0.16642
C         14.71772        17.07763        -0.04806
C         15.93498        19.22787         0.08056
C         14.71711        18.50629        -0.07996
C         15.93817        20.64878        -0.02809
C         14.71272        21.35321        -0.25550
C         15.97111        23.46738        -0.35087
C         14.73858        22.78053        -0.36765
C         15.99356        24.92890        -0.73154
C         14.75302        25.64504        -0.21599
C         16.01977        27.79803        -0.50497
C         14.76965        27.11175        -0.58114
C         16.01661        29.23763        -0.53282
C         14.82529        29.93128        -0.69445
C         18.40284         3.51695         0.29022
C         17.16224         4.24227         0.08907
C         18.48196         6.36527        -0.06469
C         17.17915         5.62692         0.01851
C         18.47518         7.74966         0.55839
C         17.17601         8.46091         0.79800
C         18.43285        10.61563         0.18180
C         17.14018         9.92029         0.56074
C         18.41732        12.08419         0.52673
C         17.17764        12.77706         0.34843
C         18.36477        14.93932         0.62028
C         17.16115        14.22687         0.34240
C         18.35905        16.37079         0.67193
C         17.14125        17.08189         0.42346
C         18.33657        19.24816         0.57093
C         17.14697        18.52612         0.37706
C         18.37423        20.65471         0.35233
C         17.16399        21.36647         0.07256
C         18.43389        23.50278        -0.01186
C         17.18848        22.78262        -0.12037
C         18.46798        24.93230        -0.09989
C         17.25512        25.66928        -0.34549
C         18.54678        27.81274        -0.47029
C         17.23968        27.06361        -0.37544
C         18.43877        29.27120        -0.08553
C         17.25503        29.93797        -0.25209
C         19.60325         4.16338         0.44545
C         20.88398         6.29612         0.51506
C         19.69769         5.58517         0.35950
C         20.92911         7.70927         0.46738
C         19.76458         8.49033         0.42080
C         20.87889        10.67476         0.75131
C         19.72092         9.90230         0.52982
C         20.83821        12.05579         0.85110
C         19.61124        12.78026         0.75351
C         20.72845        14.95624         1.22707
C         19.58420        14.23170         0.87454
C         20.70631        16.35342         1.30076
C         19.55295        17.07208         0.99869
C         20.81999        19.24592         0.69819
C         19.55120        18.57495         1.16005
C         20.83434        20.57011         0.41854
C         19.61769        21.35327         0.36581
C         20.85135        23.50666         0.41772
C         19.64091        22.77634         0.23977
C         20.86330        24.88474         0.40518
C         19.68487        25.63269         0.15650
C         20.78534        27.81496         0.61659
C         19.70759        27.08505         0.16908
C         20.76528        29.24880         0.65412
C         19.63773        29.95373         0.33333
O          3.69599        25.51117        -1.44034
O          8.50202        24.26467        -2.43172
O          9.03846        12.41067        -2.10044
O          2.54092        21.05673        -1.62529
O         10.54101        18.72506        -2.13581
O          3.24819        25.98369         2.11241
O         13.62979         8.13137         1.61956
O          2.57507         5.80731        -0.83656
O          5.28018        27.97725        -1.33533
O         18.01791         7.97784         1.92321
O          8.41652         7.78707        -2.53007
H          7.51477         7.49450        -2.78483
O         18.86224        27.81868        -1.91634
H         19.68730        28.33824        -2.02500
O          5.18767        17.08713         1.49656
H          4.44998        17.56839         1.94192
O         10.70830        29.24770        -2.54643
H         11.25614        28.55001        -2.98091
O         10.86420        16.34051         1.38995
H         11.56831        15.75153         1.73849
O         15.96496         7.01349        -1.54500
H         16.91272         7.08176        -1.82647
O          2.56677         3.83870         2.33575
H          3.48392         4.01841         2.63171
O          2.67542        18.50776         1.73453
H          1.89504        18.10734         2.17564
O         13.20701        12.45034         1.35690
H         13.80319        11.92025         1.92692
O          3.78005        10.61070         1.96964
H          4.65378        11.00770         2.17766
O         15.91582        24.98369        -2.19004
H         16.76825        24.66130        -2.55111
O         11.42067        27.91672         0.85279
H         10.70022        28.44636         1.25805
O          4.94156        30.59318        -0.81318
H          4.91553        29.84197        -1.45309
O         18.41790        10.59266        -1.31482
H         19.25851        11.00274        -1.61286
O          1.09586        14.80087        -2.07728
H          1.12812        13.85234        -2.32609
O          5.56389        16.32386        -2.06125
H          6.29658        15.97094        -2.60885
O          0.69684        10.28597        -1.40016
H          0.65277         9.31234        -1.52029
O         12.22056        27.08937        -2.62357
H         12.99263        26.60599        -2.98777
O         14.98620        12.55896        -1.86771
H         15.90065        12.83481        -2.08577
O          5.89235        20.54735        -2.62830
H          5.79287        21.46282        -2.96808
O         14.82310        25.59841         1.23820
H         14.04590        26.08030         1.59222
O         19.47464        18.80726         2.61673
H         19.44924        19.77869         2.75149
O          4.98332        14.28037         1.73124
H          4.15643        13.90927         2.10722
O          6.15627         2.03656         0.01296
H          6.38445         2.16482         0.95599
O         12.56427        12.60851        -2.24228
H         11.74529        12.86347        -2.71714
O         18.67167         6.65949        -1.51467
H         18.86644         5.80639        -1.95919
O          1.31032         6.23269         2.63744
H          1.45598         5.28768         2.88500
O          6.41584        28.71436         2.01375
H          6.62533        29.49697         2.56528
O         15.77654         6.96671         2.07681
H         15.60796         7.63948         2.76772
O          9.93517         5.47181        -2.49339
H          9.64940         6.35831        -2.82765
H          1.18916         2.39406         0.09238
H         -0.83211         3.78410        -0.13779
H         -0.91571         6.14216         0.54738
H         -0.74843         8.04176         1.64665
H         -0.88792        10.43159         1.12630
H         -1.01182        12.25377         0.28851
H         -1.08201        14.63154        -0.17158
H         -1.03367        16.56803        -0.38939
H         -1.03786        19.00648        -0.11392
H         -0.88500        20.80766         1.11623
H         -0.79447        23.23988         1.39171
H         -0.64589        25.07429         1.94132
H         -0.49164        27.46069         2.43905
H          0.70841        29.66338         2.27714
H          3.77177         2.30597         0.27218
H          2.74153        30.92514         1.64192
H          5.86672         3.12471        -1.70126
H          5.11914        30.87670         1.21738
H          8.53390         2.29562        -0.43878
H          7.62996        30.97150         0.48238
H         10.99763         2.33902        -0.15109
H          9.92375        31.01291        -0.24342
H         13.48593         2.37093        -0.21117
H         12.39793        31.04657        -1.00215
H         15.94747         2.42252        -0.00660
H         14.83109        31.03163        -0.68009
H         18.35676         2.42047         0.35567
H         17.21134        31.02648        -0.08986
H         20.51650         3.58606         0.65437
H         21.82078         5.74508         0.68867
H         21.91373         8.19604         0.51330
H         21.84371        10.16780         0.89478
H         21.77819        12.59217         1.03184
H         21.66522        14.43793         1.46911
H         21.61890        16.87901         1.61293
H         21.76326        18.68122         0.69694
H         21.78906        21.05355         0.16610
H         21.78949        22.97042         0.61225
H         21.81533        25.40605         0.57372
H         21.68160        27.31077         1.00476
H         21.66328        29.77575         1.00570
H         19.60925        31.04701         0.45198
