         252
 CSIRO Nanostructure Databank - Neutral Graphene Oxide Data Set
C         30.94048        31.88027        -2.46909
C         30.70703        32.97358        -1.92524
C         30.54410        35.81321        -0.03093
C         30.29081        37.08393        -0.01562
C         30.30343        40.36503        -0.51383
C         30.63386        41.59419        -0.80238
C         33.67447        29.39796        -3.00259
C         32.55435        29.94098        -3.15992
C         33.17870        31.69035        -1.66767
C         32.16338        31.13764        -2.51078
C         32.91070        32.91562        -0.85432
C         31.54935        33.60135        -0.89660
C         32.80952        35.85029        -0.77278
C         31.51056        35.02427        -0.53174
C         32.67378        37.35240        -0.42920
C         31.29908        37.95968        -0.41685
C         33.05198        40.33247        -0.75788
C         31.09832        39.28874        -0.89508
C         33.08576        41.82211        -0.88920
C         31.62534        42.50400        -0.86189
C         32.91221        44.55015        -0.59136
C         31.87493        43.90764        -0.82647
C         36.34319        27.81196        -2.33611
C         35.93777        29.10161        -1.87107
C         34.74667        29.79397        -2.16997
C         35.48990        31.63728        -0.72626
C         34.45605        31.04906        -1.52532
C         35.24516        32.92024        -0.08224
C         34.06729        33.68442        -0.29808
C         35.05164        35.92504         0.29570
C         33.98659        35.11036        -0.13237
C         35.16847        37.36368        -0.19710
C         33.81239        38.07684        -0.14392
C         34.89769        40.18013         0.85914
C         33.82934        39.54484         0.03362
C         35.09797        41.70619         0.87204
C         33.92033        42.55403         0.24747
C         35.19619        44.74061         0.68018
C         34.30037        44.03296        -0.28910
C         35.34365        46.09099         0.85937
C         38.37390        27.48587        -1.17275
C         37.41712        27.19210        -2.25376
C         38.10371        28.86791        -0.54696
C         36.91513        29.65689        -0.99806
C         37.94914        31.72703        -0.00863
C         36.72670        30.97812        -0.52563
C         37.57633        32.91153         0.85034
C         36.24384        33.34982         0.82335
C         37.38754        35.94469         1.30217
C         36.10685        35.41421         1.08506
C         37.64888        37.35267         0.69985
C         36.28046        38.06780         0.58518
C         37.90379        40.42763         1.36536
C         36.01477        39.26009         1.15800
C         37.77079        41.78451         1.05381
C         36.42843        42.46266         1.16180
C         37.76555        44.64448         0.62104
C         36.45382        43.95721         1.03463
C         37.79985        46.16615         1.02911
C         36.52946        46.55482         1.20171
C         41.18777        25.00927        -1.18587
C         40.13674        25.59286        -1.48877
C         40.77606        27.57242        -0.21357
C         39.76875        26.97504        -1.18365
C         40.33728        28.67556         0.75581
C         39.18981        29.55367         0.22394
C         40.01497        31.51417         1.54019
C         39.02765        30.84907         0.62388
C         39.87444        33.02808         1.93857
C         38.55936        33.67857         1.50355
C         40.32612        36.14063         1.52717
C         38.37405        35.05407         1.81637
C         40.14849        37.38245         1.02079
C         38.87631        38.13625         1.39226
C         40.09701        40.27180         0.45207
C         38.97610        39.61282         0.99500
C         40.12842        41.69324         0.47403
C         38.98549        42.46352         0.77417
C         40.34479        44.69680         0.65319
C         39.04997        43.95632         1.13316
C         40.44892        46.17880         1.16293
C         39.08495        46.88157         1.15509
C         40.21212        48.91160         0.30086
C         39.24279        48.27506         0.72585
C         43.34855        24.83781         0.27423
C         42.18979        25.43295        -0.24908
C         42.93581        27.43473         1.03382
C         41.98109        26.78375         0.20437
C         42.77222        28.86096         1.36277
C         41.56864        29.47914         1.14487
C         42.60564        31.65533         1.88381
C         41.37512        30.84294         1.66791
C         42.34571        33.07869         1.98584
C         41.20642        33.75324         1.63923
C         42.57094        35.81073         0.44814
C         41.35243        35.16625         1.11449
C         42.53766        37.26996         0.17541
C         41.23463        37.96708         0.20349
C         42.58612        40.10178        -0.06433
C         41.25566        39.47654        -0.03946
C         42.65176        41.56826        -0.01480
C         41.40839        42.39657         0.17963
C         42.81377        44.24261         0.87957
C         41.55113        43.77518         0.75055
C         42.95157        46.53923         1.06227
C         41.69579        47.02405         0.88026
C         42.84555        48.96342        -0.02657
C         41.61412        48.64761         0.74644
C         44.13594        25.44918         1.05441
C         45.09123        27.49444         2.36786
C         44.10246        26.77290         1.49550
C         45.17152        28.98041         1.93815
C         43.97613        29.63697         1.70282
C         45.19344        31.87418         1.69965
C         43.87842        31.10126         1.72778
C         45.24353        33.19206         0.99752
C         44.21925        34.05554         1.19938
C         44.97249        35.79830        -0.26048
C         43.93697        35.22935         0.42443
C         44.88897        37.20955        -0.77793
C         43.69130        37.93153        -0.18929
C         45.09327        39.94828         0.29032
C         43.74796        39.37230        -0.13434
C         45.15099        41.45538         0.18485
C         43.99131        42.14690         0.21763
C         45.15757        44.40108        -0.20083
C         43.97201        43.61916         0.21757
C         45.05031        46.25236        -0.38900
C         44.34800        47.11446         0.69202
C         43.96238        48.47090         0.16551
C         47.54892        27.53646         1.98785
C         46.49007        26.96358         2.22780
C         47.77257        28.89515         1.49396
C         46.46581        29.65700         1.61194
C         47.76698        31.85559         1.15781
C         46.50683        31.15098         1.66684
C         47.67356        33.03922         0.28135
C         46.31609        33.60031         0.06305
C         47.42845        35.73807        -0.87812
C         46.19165        35.01628        -0.51707
C         47.44300        37.12150        -0.87163
C         46.22762        37.90739        -0.59059
C         47.66399        39.82426         0.09472
C         46.30530        39.22759        -0.25992
C         47.72296        41.38042         0.23509
C         46.43235        42.22184         0.49196
C         47.65244        44.28217        -0.34118
C         46.46441        43.63590        -0.16367
C         47.49369        45.70127        -0.59587
C         46.50799        46.43888        -0.53772
C         50.28058        29.07440         1.09647
C         49.06343        29.59662         1.40025
C         50.20516        31.64164         0.26759
C         49.09396        31.07580         1.08547
C         50.07700        32.93832        -0.25374
C         48.80139        33.63050        -0.28041
C         49.81627        35.64367        -1.64513
C         48.58705        34.81809        -1.25751
C         49.78211        37.16233        -1.75077
C         48.65478        37.90179        -1.14341
C         50.00800        39.99110        -1.03384
C         48.77360        39.23203        -0.78311
C         50.15548        41.32423        -0.69384
C         49.00758        42.09217        -0.10030
C         49.95527        43.94706        -1.32138
C         49.00782        43.67006        -0.18905
C         51.36654        29.53497         0.57872
C         52.40935        31.54670        -0.66625
C         51.41444        30.80940         0.04715
C         52.40710        32.73764        -1.00508
C         51.28939        33.66571        -0.80877
C         52.18577        35.73964        -2.26520
C         51.17427        34.99597        -1.46285
C         52.07830        36.97842        -2.30015
C         51.06160        37.91041        -1.93040
C         52.25931        40.10272        -1.78831
C         51.13943        39.23558        -1.63096
C         52.50481        41.29147        -1.56692
C         51.47926        42.15320        -0.88907
C         50.99844        43.37709        -1.64668
O         45.90648        33.79915        -1.32931
O         48.71707        41.69593         1.28047
O         44.20894        44.00352        -1.21608
O         48.76612        31.94551         2.21359
O         35.82022        34.24438         1.82250
O         40.34472        30.74359         2.74960
O         51.54738        34.89805        -0.06572
O         43.43482        33.88010         2.32659
O         46.01157        31.73171         2.90841
O         32.23379        39.70848        -1.70231
O         39.79016        46.57118         2.40036
O         37.74813        27.58406         0.10987
O         36.88048        39.81998         2.10446
O         41.55833        35.10078        -0.35346
O         40.90081        38.54623        -1.10241
O         34.54706        40.98849         2.02309
O         36.38788        43.33813         2.35568
O         43.12049        45.31333         1.70568
O         41.93307        42.20408        -1.17287
O         46.96051        29.16187         0.29826
O         49.54680        36.29077        -2.90730
O         39.44955        35.63993         2.49222
O         31.86038        32.70648         0.19069
O         40.74582        27.95175        -1.63072
O         40.27533        44.90685        -0.79443
H         40.72455        44.16711        -1.26240
O         46.37534        42.48350         1.90833
H         47.29332        42.68099         2.20848
O         45.17027        47.16551         1.82957
H         44.78120        47.77657         2.48787
O         35.54001        37.30216        -1.60686
H         34.84997        36.76779        -2.07084
O         39.07368        43.99460         2.56481
H         38.18796        43.70358         2.89544
O         44.64356        27.47404         3.71969
H         44.46216        26.54811         3.98246
O         44.33330        46.41423        -1.55624
H         44.76643        45.93726        -2.29326
O         48.24526        34.15473        -2.50287
H         47.31175        33.83437        -2.43176
O         33.62501        42.03572        -2.20163
H         33.16882        41.41197        -2.80903
O         35.07771        43.98551        -1.46485
H         34.54148        43.62514        -2.20626
O         33.05418        35.78945        -2.20825
H         32.34499        36.29165        -2.66466
O         38.57690        32.30430        -1.20102
H         38.74852        31.58373        -1.84370
O         41.77488        49.16691         2.04076
H         40.97083        48.97370         2.56743
O         47.90862        39.30918         1.43997
H         48.59498        39.89480         1.84302
O         37.71419        44.61236        -0.79962
H         38.56836        44.95291        -1.16529
O         49.59475        44.16530         0.99792
H         50.49142        43.76125         1.08124
O         38.74583        38.08279         2.81374
H         37.95903        38.61175         3.07735
O         33.00696        42.78957         1.31720
H         33.20820        42.16919         2.05658
O         39.78453        33.09074         3.37919
H         40.16439        32.25767         3.74795
O         45.13427        39.65780         1.72890
H         46.08189        39.67212         2.01146
O         39.87521        28.01562         1.95361
H         39.72570        28.71394         2.63147
O         44.65980        37.16861        -2.21321
H         43.77043        36.78713        -2.37355
O         51.92155        42.58786         0.37507
H         52.78289        43.04390         0.27367
O         38.10443        37.13479        -0.64449
H         37.32564        37.03136        -1.24356
