         621
 CSIRO Nanostructure Databank - Neutral Graphene Oxide Data Set
C          6.16293        31.91754        -0.22904
C          6.09969        33.26692        -0.40025
C          8.32019        27.50314        -0.83679
C          8.25639        28.88899        -1.10818
C          7.25494        29.71526        -0.57489
C          8.26085        31.76392        -1.50755
C          7.25442        31.12426        -0.76141
C          8.20425        33.21063        -1.75387
C          7.13597        33.99694        -1.09289
C          8.30774        36.14877        -1.51728
C          7.18113        35.36881        -1.06098
C          8.32070        37.50267        -1.34622
C         10.76422        23.13482        -0.63675
C         10.72983        24.51244        -0.99997
C          9.49718        25.29616        -0.59579
C         10.66940        27.34107        -1.49918
C          9.48585        26.73944        -1.05403
C         10.63658        28.72468        -2.02709
C          9.31969        29.50440        -1.92223
C         10.72713        31.72923        -2.37705
C          9.33653        30.98775        -2.11529
C         10.76832        33.19490        -2.13433
C          9.48582        33.94382        -2.16997
C         10.80278        36.04159        -1.56189
C          9.52892        35.47558        -2.14593
C         10.75359        37.46710        -1.06464
C          9.57401        38.29593        -1.63427
C         10.78868        40.33163        -0.72498
C          9.60392        39.68624        -1.03809
C         10.81781        41.73658        -0.42491
C         13.13873        18.88234         0.46145
C         12.70257        20.00777        -0.32789
C         11.90098        21.08034        -0.01545
C         13.03027        22.81978        -1.59128
C         11.86781        22.30714        -0.80110
C         13.03966        24.34075        -1.88814
C         11.86365        25.14169        -1.49035
C         13.08621        27.28171        -1.78313
C         11.89843        26.59370        -1.60013
C         13.08214        28.74738        -1.61407
C         11.88184        29.51969        -2.02299
C         13.23944        31.60341        -2.07879
C         11.93366        30.89192        -2.15777
C         13.23927        33.15118        -1.93318
C         11.94406        33.86532        -1.84622
C         13.25262        35.93777        -1.27177
C         11.96915        35.29874        -1.52293
C         13.32848        37.42598        -1.28541
C         12.04938        38.21653        -1.27131
C         13.25363        40.20474        -0.41696
C         12.06299        39.61428        -0.78879
C         13.22761        41.59121         0.11767
C         12.00844        42.40714        -0.11317
C         13.29953        44.51938         0.28432
C         12.07969        43.80011         0.07478
C         13.27483        45.91533         0.41370
C         15.89887        15.10114         1.84380
C         15.82330        16.32944         1.23474
C         14.51778        17.07969         1.29534
C         15.58665        18.81966        -0.25946
C         14.37960        18.27696         0.37040
C         15.60237        20.05694        -0.92558
C         14.44879        20.78925        -1.36459
C         15.62138        22.89050        -1.91743
C         14.36034        22.15878        -1.51189
C         15.62411        24.38623        -1.73694
C         14.35774        25.07356        -2.05351
C         15.64345        27.27036        -1.63997
C         14.37176        26.58292        -1.97976
C         15.65575        28.66856        -1.49565
C         14.39693        29.43788        -1.46593
C         15.65432        31.53954        -1.39695
C         14.45504        30.88456        -1.68719
C         15.58696        32.96637        -1.01805
C         14.41614        33.78035        -1.31915
C         15.78052        35.90587        -1.28031
C         14.42381        35.18933        -1.14537
C         15.77075        37.37480        -0.83573
C         14.54375        38.11649        -0.79959
C         15.72088        40.11281         0.10340
C         14.49352        39.46034        -0.40753
C         15.79984        41.59623         0.29552
C         14.51852        42.31689         0.40983
C         15.77468        44.43068         0.57737
C         14.55459        43.79004         0.38808
C         15.82500        45.90032         0.49238
C         14.48825        46.71450         0.40394
C         15.77414        48.80750         0.92315
C         14.55118        48.11650         0.80192
C         15.82951        50.22414         1.07749
C         18.53658        11.29123         3.53819
C         18.47331        12.54247         2.89463
C         17.21900        13.17077         2.63731
C         18.34978        15.05159         1.54609
C         17.14890        14.41084         2.00885
C         18.26969        16.28139         0.84172
C         16.98921        16.94588         0.65648
C         18.09225        18.76149        -0.59141
C         16.88043        18.17104        -0.02837
C         18.11456        20.07249        -1.00061
C         16.85952        20.82811        -0.93610
C         18.13100        22.96384        -1.52492
C         16.84575        22.26255        -1.30264
C         18.09687        24.36122        -1.50214
C         16.82328        25.07552        -1.59431
C         18.07373        27.20816        -1.25817
C         16.84772        26.52575        -1.53504
C         18.06791        28.62141        -1.15618
C         16.87447        29.37179        -1.30884
C         18.11636        31.52788        -1.05550
C         16.86791        30.81345        -1.18541
C         18.13777        32.93943        -0.91400
C         16.91392        33.65825        -0.58790
C         18.20687        35.82660        -0.69794
C         16.89551        35.16235        -0.38511
C         18.19902        37.21703        -0.89086
C         16.98770        38.01799        -0.71504
C         18.24933        40.24569        -0.10114
C         17.03550        39.39009        -0.14766
C         18.25597        41.46882         0.79579
C         16.97923        42.26114         0.55392
C         18.25075        44.36218         0.98599
C         17.01890        43.70267         0.74884
C         18.26532        45.82136         1.29175
C         16.97513        46.61350         1.08865
C         18.23578        48.74860         1.13456
C         17.01531        48.07925         0.98038
C         18.26092        50.16271         1.35725
C         17.02317        50.92366         1.33053
C         17.93090        53.18063         1.96909
C         16.97607        52.37583         1.34411
C         18.28438        54.54314         1.84023
C         21.13499         7.32319         4.82327
C         21.04315         8.71312         4.64419
C         19.82867         9.36456         4.37323
C         20.97568        11.43226         3.61546
C         19.77712        10.70600         3.88608
C         20.95137        12.63674         2.85588
C         19.68122        13.19524         2.48873
C         20.81417        15.04406         1.31447
C         19.61687        14.43182         1.78087
C         20.72111        16.22788         0.53288
C         19.45725        16.82077         0.29040
C         20.62240        18.59453        -1.16853
C         19.34056        17.96034        -0.63585
C         20.59048        19.99771        -1.71487
C         19.28489        20.75168        -1.60625
C         20.57643        22.90921        -1.59983
C         19.34361        22.23298        -1.56954
C         20.58056        24.32774        -1.36481
C         19.33046        25.06346        -1.30559
C         20.50582        27.09949        -0.56396
C         19.29605        26.45227        -1.07088
C         20.55409        28.58903        -0.44596
C         19.28627        29.36268        -0.77883
C         20.64392        31.44685        -1.12186
C         19.34034        30.79627        -1.06444
C         20.71255        32.94087        -1.18184
C         19.40220        33.68099        -1.09424
C         20.65192        35.82299        -0.73554
C         19.42315        35.12801        -0.80192
C         20.65147        37.22803        -0.82446
C         19.43008        37.80861        -1.19302
C         20.70628        40.37996        -0.34801
C         19.39717        39.93577        -0.75327
C         20.74069        41.62286         0.32714
C         19.52178        42.29903         0.63754
C         20.79092        44.36513         1.38774
C         19.50481        43.66990         0.91116
C         20.80037        45.88187         1.22579
C         19.50810        46.60589         1.15922
C         20.70586        48.74034         0.78299
C         19.48784        47.99421         1.06133
C         20.72955        50.10983         0.95608
C         19.55013        50.77885         1.44214
C         20.89461        52.85257         1.87313
C         19.74279        52.03547         2.02805
C         20.81529        54.25944         2.36498
C         19.55123        55.07085         2.26539
C         20.90371        57.15226         2.61442
C         19.65698        56.44594         2.49148
C         20.95469        58.53875         2.92215
C         23.66055         4.55651         5.02560
C         22.43439         5.22082         4.99497
C         23.60947         7.35984         4.89770
C         22.38543         6.63633         4.91896
C         23.58832         8.83067         4.94903
C         22.27126         9.53134         4.78124
C         23.50357        11.54234         3.70795
C         22.25185        10.94915         4.14227
C         23.48371        12.93084         3.11549
C         22.15335        13.30021         2.49052
C         23.27826        14.96882         1.07884
C         22.10081        14.44291         1.63731
C         23.21142        16.14120         0.21246
C         21.92906        16.87182         0.04945
C         23.15105        18.70527        -1.10969
C         21.89258        18.06685        -0.63285
C         23.10414        20.03655        -1.82415
C         21.83743        20.78841        -1.79209
C         23.07535        22.93958        -1.78558
C         21.83611        22.18796        -1.73889
C         23.06052        24.34971        -1.53719
C         21.81538        24.99411        -1.24256
C         23.10002        27.12468        -0.77241
C         21.84924        26.35371        -0.71253
C         23.07105        28.51936        -0.47725
C         21.85486        29.24837        -0.44971
C         23.04308        31.44322        -0.12767
C         21.90338        30.69145        -0.73915
C         23.16426        32.91784        -0.22913
C         22.01834        33.64011        -0.85408
C         23.01499        35.75120         0.22897
C         21.96335        35.12104        -0.66454
C         23.03753        37.28714         0.08987
C         21.81310        38.04797        -0.37833
C         23.11160        40.17833        -0.29418
C         21.85903        39.54982        -0.47901
C         23.16766        41.57018        -0.14651
C         22.04326        42.23754         0.48509
C         23.24307        44.46336         0.28818
C         22.12609        43.72465         0.86856
C         23.27179        45.87295         0.38886
C         22.06283        46.60480         0.86800
C         23.21763        48.77377         0.15971
C         21.93801        48.02016         0.39224
C         23.20911        50.26709         0.25527
C         21.94493        50.93643         0.72658
C         23.32368        52.97306         1.36910
C         22.04717        52.29097         1.32644
C         23.36718        54.32936         1.79003
C         22.13866        55.02078         2.25850
C         23.34251        57.23878         2.13944
C         22.10552        56.47835         2.30459
C         23.40761        58.58913         2.69777
C         22.18974        59.23562         3.05343
C         23.48363        61.22188         3.63475
C         22.25220        60.58093         3.51087
C         24.85900         5.26522         4.94908
C         26.07122         7.40904         4.65065
C         24.85487         6.68193         4.87012
C         26.09669         8.78387         4.41190
C         24.87593         9.58697         4.68116
C         26.04530        11.58652         3.53784
C         24.79142        10.99135         4.14047
C         25.90802        12.67686         2.53366
C         24.68479        13.21777         2.23691
C         25.82884        15.05243         0.94754
C         24.57664        14.19952         1.09368
C         25.79702        16.29055         0.33059
C         24.50245        16.82493        -0.15469
C         25.67775        19.02142        -0.71874
C         24.38459        18.32780        -0.30154
C         25.63558        20.25007        -1.56892
C         24.36838        20.78965        -2.23393
C         25.52311        22.98829        -2.11287
C         24.33233        22.28406        -1.99378
C         25.48769        24.45845        -2.04877
C         24.26361        25.10843        -1.55441
C         25.54202        27.24119        -1.17206
C         24.30162        26.49316        -1.18348
C         25.51775        28.57947        -0.67474
C         24.31537        29.21562        -0.35285
C         25.54288        31.34523         0.45784
C         24.27834        30.60438         0.14888
C         25.53289        32.84736         0.58315
C         24.31185        33.59878         0.15792
C         25.53877        35.78810         0.32220
C         24.37314        35.06367         0.13318
C         25.52832        37.25308         0.24352
C         24.36014        37.95504         0.07005
C         25.65469        40.17910        -0.05303
C         24.35597        39.43372         0.01724
C         25.65700        41.55489        -0.65135
C         24.36741        42.31669        -0.55276
C         25.64532        44.52734        -0.68772
C         24.25571        43.83635        -0.66919
C         25.70065        46.04730        -0.42339
C         24.42491        46.59998         0.15103
C         25.78873        48.70667         0.37356
C         24.46317        48.02613         0.61195
C         25.82311        50.18276         0.39911
C         24.52753        50.97323         0.42067
C         25.79343        52.93224         1.29109
C         24.54128        52.31630         1.02924
C         25.81871        54.30346         1.67322
C         24.60084        55.00732         1.81455
C         25.91066        57.13527         2.32193
C         24.64685        56.48034         1.92350
C         25.88698        58.48889         2.67774
C         24.66699        59.22136         2.86857
C         24.67823        60.56112         3.33846
C         27.26153         9.41912         3.91882
C         28.41540        11.29923         2.86363
C         27.27638        10.74906         3.45365
C         28.39270        12.57692         2.21793
C         27.13185        13.21214         1.96389
C         28.30428        15.09323         0.89909
C         27.09279        14.44801         1.28193
C         28.26973        16.35358         0.23559
C         27.00281        17.00729        -0.01691
C         28.15567        18.92306        -1.08889
C         26.96359        18.28846        -0.60524
C         28.17944        20.19940        -1.68253
C         26.91230        20.82244        -2.09885
C         28.10109        23.08656        -2.20764
C         26.83630        22.33163        -2.35089
C         28.07948        24.48722        -2.07631
C         26.79166        25.23318        -2.06299
C         28.00579        27.31394        -1.52596
C         26.78999        26.62805        -1.55710
C         28.00933        28.75233        -1.17104
C         26.76214        29.38888        -0.65281
C         28.14080        31.42031         0.24692
C         26.84138        30.62685         0.21548
C         28.11773        32.87650         0.36411
C         26.86099        33.57627         0.65930
C         28.12146        35.80240         0.43161
C         26.83740        35.09693         0.60947
C         28.10431        37.25282         0.65844
C         26.79560        38.01542         0.47603
C         28.12928        40.10304         0.01281
C         26.91487        39.42447         0.05340
C         28.17873        41.53466        -0.24623
C         27.00447        42.22671        -0.89227
C         28.19908        44.44594        -0.24127
C         26.94436        43.75904        -0.69115
C         28.20784        45.79937         0.13167
C         26.88502        46.47368         0.47074
C         28.22074        48.64217         0.71092
C         26.94971        47.98823         0.47735
C         28.23725        50.04144         0.99611
C         27.04890        50.82013         0.91162
C         28.27025        52.83527         1.60299
C         27.03415        52.18657         1.23286
C         28.26504        54.22169         1.91738
C         27.07820        54.97637         1.94335
C         27.08640        56.35160         2.29922
C         29.58019        13.19109         1.78513
C         30.76315        15.10292         0.74780
C         29.56607        14.45523         1.14356
C         30.73846        16.33873         0.07777
C         29.47039        16.93818        -0.20546
C         30.71397        18.85292        -1.38986
C         29.40404        18.14512        -1.03040
C         30.63122        20.27732        -1.72363
C         29.40886        20.92614        -1.92188
C         30.53858        23.14621        -2.21359
C         29.35043        22.38371        -2.15672
C         30.51553        24.57044        -2.34794
C         29.28370        25.23598        -2.07590
C         30.48072        27.36333        -1.83787
C         29.26486        26.66339        -1.83763
C         30.48901        28.82826        -1.60563
C         29.32601        29.38085        -0.85337
C         30.63778        31.54956        -0.40653
C         29.39812        30.74529        -0.24329
C         30.62706        32.97268        -0.16003
C         29.27801        33.67110        -0.20972
C         30.57723        35.79510         0.31328
C         29.33229        35.11756         0.25264
C         30.60332        37.23296         0.67075
C         29.35213        38.00440         0.47832
C         30.64595        40.04079         0.02790
C         29.35319        39.35628         0.26347
C         30.62983        41.49841        -0.27242
C         29.36747        42.25125        -0.26970
C         30.65812        44.38931        -0.04334
C         29.40921        43.69881        -0.23369
C         30.68450        45.76613         0.37711
C         29.43722        46.46959         0.43796
C         30.62749        48.52408         1.17987
C         29.40954        47.87617         0.78084
C         30.63880        49.90104         1.47524
C         29.46502        50.68553         1.37973
C         29.45640        52.07503         1.65564
C         31.95323        17.04279        -0.23442
C         33.17787        19.05508        -0.94248
C         31.97559        18.29630        -0.83742
C         33.19816        20.36805        -1.42637
C         31.91268        20.97107        -1.89291
C         33.06235        23.11984        -1.50454
C         31.84704        22.46274        -2.10451
C         32.91030        24.80637        -3.16419
C         31.69576        25.36057        -2.62757
C         32.91745        27.48759        -2.27564
C         31.72287        26.73132        -2.20121
C         33.02811        28.74588        -1.43967
C         31.76757        29.57434        -1.46927
C         33.09526        31.51200        -0.58687
C         31.79203        30.88489        -0.77434
C         33.10618        33.01386        -0.28442
C         31.80419        33.70764        -0.21761
C         33.04358        35.84431         0.00561
C         31.82391        35.15218         0.00764
C         33.18417        37.21452         0.53713
C         31.90365        37.95881         0.79345
C         33.20251        40.19341         0.38463
C         31.90710        39.45398         0.59980
C         33.10032        41.54160        -0.21663
C         31.89559        42.24598        -0.25900
C         33.66147        44.60775         0.67584
C         31.85644        43.65744        -0.30419
C         33.10647        45.70449         1.31842
C         31.88135        46.39334         0.93776
C         31.80106        47.73365         1.32680
C         34.39205        21.09910        -1.65575
C         35.41883        23.23989        -2.45871
C         34.35968        22.49547        -1.94588
C         35.40828        24.67417        -2.71931
C         34.17187        25.40150        -2.89886
C         35.51853        27.62299        -2.62430
C         34.14240        26.86308        -2.75552
C         35.49234        28.92853        -1.99892
C         34.27891        29.57305        -1.63062
C         35.50138        31.72664        -1.45334
C         34.28989        30.88553        -1.18049
C         35.51231        33.12157        -0.88244
C         34.34323        33.77089        -0.59258
C         35.53717        35.98496        -0.62112
C         34.20764        35.27322        -0.75131
C         35.68606        37.27869        -0.14813
C         34.47566        37.97775         0.38017
C         35.72831        40.09140         0.62896
C         34.49705        39.46706         0.39008
C         35.87481        41.49272         0.98490
C         35.00902        42.49670         0.55686
C         34.72136        43.76428         1.11867
C         36.62262        25.36385        -2.56967
C         37.94368        27.41524        -2.17391
C         36.75133        26.79355        -2.48710
C         38.02897        28.92614        -2.18659
C         36.77228        29.52827        -1.59696
C         38.05925        31.74264        -1.27462
C         36.79086        30.98331        -1.23038
C         38.06043        33.13624        -1.13367
C         36.77264        33.84438        -1.07085
C         38.53091        36.13729        -0.45264
C         36.66584        35.22546        -1.10365
C         38.21055        37.21325         0.33935
C         36.94902        37.93993         0.21519
C         36.90303        39.24816         0.68378
C         39.25120        29.58263        -1.59306
C         40.49643        31.60346        -0.92903
C         39.26477        30.92886        -1.27793
C         40.50427        32.93665        -0.67059
C         39.32991        33.78671        -0.77032
C         39.50245        35.09203        -0.30431
O         32.99309        23.88805        -0.55500
O         16.37778        39.37899         1.19278
O         19.68274        29.08741         0.63976
O         22.45376        34.57711        -1.91536
O         33.31083        32.02818         0.77597
O         30.04225        17.97802        -2.34712
O         36.79712        29.95607        -0.19183
O         32.45965        40.21327         1.70394
O         33.04030        44.30647        -0.57337
O         25.67835        20.37951        -0.10315
O         21.70292        46.46371         2.27033
O         13.46639        32.49872        -3.22265
O         27.21019        29.63611        -2.04166
O         24.94688        40.07331         1.22984
O         19.86391        17.64378        -1.97174
O         21.13379        26.44634         0.57571
O         22.09856        37.82968         1.07562
O         21.58568        30.91009        -2.15216
O         19.40187        39.04549        -1.82710
O         22.35387        50.93478        -0.70383
O         23.28397        30.85602         1.18664
O         29.65139        29.52144         0.55360
O         25.64993        11.96189         4.90188
O         31.21677        37.52281         2.00245
O         34.24048        42.16784        -0.61448
O         30.73044        40.47067        -1.37052
O         26.02013        25.08136        -3.30035
O         15.39061        46.43654        -0.75800
O         16.15223        35.80142        -2.58917
O         32.11583        21.56720        -3.22592
O         27.63065        30.62324         1.41422
O         23.96938        57.11761         0.79318
O         13.55977        29.12431        -0.24733
O         18.76552        52.49109         2.89465
O         37.72926        35.97402        -1.60585
O         13.69353        41.72281         1.50366
O          9.81148        31.35347        -3.42961
O         21.61769        54.47291         3.55462
O         26.88229        21.34477        -3.43886
O         26.85814        34.38786         1.90558
O         13.28722        20.04676        -1.60451
O          9.70328        28.82311        -3.14622
O         23.14328        18.74755        -2.56293
O          8.49887        33.53942        -3.16222
O         25.31658        50.85691        -0.81144
O         20.07685        33.41824        -2.39644
O         24.38222         9.41173         6.03840
O         27.32970        37.72474         1.81122
O         23.88008        15.97357        -1.14895
O         22.14832        10.68106         5.61191
O         22.47829        48.22105        -0.95750
O         22.51357        42.68892         1.82029
O         19.71997        20.15727        -2.87930
O         25.42337        31.98365         1.75583
O         34.10477        37.35518         1.68961
O         34.81340        27.54200        -3.89192
O         12.74164        23.35438        -2.92944
O         17.38660        46.15977         2.41748
O         16.04767        33.03551         0.40658
O         16.75696        21.90931         0.12456
O         31.01890        29.61514        -2.73085
O         26.36323        44.30153        -1.93727
O         14.43466        25.87791        -3.28472
O         24.82094        41.69877        -1.83822
O         12.74472        37.99822        -2.52316
O         32.83287        23.77358        -4.02188
H         33.72478        23.47854        -4.29655
O         20.73153        44.11769         2.80589
H         21.31684        44.77527         3.24464
O         23.64534        13.85815         4.26128
H         24.38117        13.49178         4.81242
O          9.55205        35.85926        -3.55853
H          8.95622        35.23052        -4.03021
O         27.31406        42.00700        -2.29346
H         26.73009        42.60945        -2.81004
O         24.47864        20.62633        -3.65870
H         24.13421        19.73560        -3.89277
O         22.56517        35.43755         1.57049
H         23.01774        36.03170         2.20603
O         33.81781        35.42209        -2.18124
H         34.60849        35.20664        -2.72304
O         25.91581        46.71680        -1.68262
H         25.22465        46.41902        -2.31063
O         37.99934        29.33083        -3.59933
H         38.71947        28.85744        -4.06585
O         16.58664        35.44211         0.98232
H         16.14183        34.64189         1.35142
O         23.67493        44.09599        -1.97696
H         24.20073        43.57119        -2.62326
O         10.51475        37.41154         0.37437
H         11.26068        36.93659         0.79737
O         15.73567        22.67959        -3.35862
H         14.92697        23.05419        -3.77612
O         24.36294        48.01940         2.08114
H         24.96646        47.30731         2.40168
O         18.24341        41.07208         2.18942
H         17.51023        40.41607         2.28903
O         24.52671        13.38913        -0.13832
H         24.38045        14.02749        -0.87880
O         13.41175        16.18585         1.10680
H         13.43624        15.85751         0.18465
O          8.31122        24.62275        -1.03373
H          8.33036        24.57505        -2.01164
O          9.73576        38.50074        -3.05044
H          9.73644        37.61399        -3.49456
O         24.07970        18.77164         1.05078
H         24.49760        19.65754         1.16986
O         26.54771        46.02984         1.82402
H         27.30558        46.23879         2.41098
O         35.49779        31.98161        -2.90799
H         34.60959        32.30977        -3.16269
O         28.95272        33.75287        -1.65788
H         29.70438        34.19770        -2.10649
O         33.08570        28.26392        -0.05870
H         33.95194        27.83033         0.09163
H          5.36769        31.39412         0.32046
H          5.26457        33.84028         0.02783
H          7.46641        27.02186        -0.33760
H          6.44700        29.26202         0.01757
H          6.36885        35.91174        -0.55258
H          7.43321        38.00761        -0.93141
H          9.88959        22.73971        -0.09897
H          9.45306        25.29528         0.53139
H          8.66198        40.25704        -1.00327
H          9.88147        42.31044        -0.50181
H         12.43395        18.45856         1.19566
H         11.28137        21.04793         0.89354
H         11.15379        44.38684        -0.02739
H         12.31065        46.42469         0.55738
H         14.98473        14.65155         2.25893
H         14.42006        17.46504         2.35097
H         13.60820        48.65557         0.97637
H         14.89015        50.79182         1.00471
H         17.60396        10.76195         3.78254
H         16.29565        12.67635         2.97344
H         16.14480        52.85454         0.80529
H         17.54856        55.25419         1.43509
H         20.20842         6.72997         4.83581
H         18.89823         8.77856         4.38437
H         18.73445        57.04496         2.51042
H         20.01694        59.07273         3.13535
H         23.68162         3.45980         5.09199
H         21.49492         4.65152         5.02947
H         23.51749        62.26144         3.99007
H         21.32325        61.10798         3.76974
H         25.81860         4.72926         4.94543
H         27.00223         6.83502         4.52944
H         26.83626        58.99385         2.91104
H         25.63977        61.07526         3.47755
H         28.17304         8.81434         3.79789
H         29.35748        10.73100         2.88205
H         29.21710        54.71221         2.16932
H         28.04652        56.82511         2.55305
H         30.54349        12.69440         1.97283
H         31.72906        14.62343         0.96436
H         31.58241        50.37605         1.78196
H         30.39842        52.57021         1.93490
H         32.90190        16.60598         0.11261
H         34.11658        18.59595        -0.59767
H         33.65610        46.13896         2.16712
H         32.69419        48.21033         1.75753
H         35.35804        20.57150        -1.62228
H         36.38558        22.72589        -2.59276
H         36.67759        41.74646         1.69281
H         35.23302        44.04173         2.05083
H         37.52939        24.76949        -2.37857
H         38.85673        26.81440        -2.03852
H         38.88583        37.51429         1.15411
H         37.84114        39.71148         1.02477
H         40.20143        29.02475        -1.58109
H         41.42591        31.01848        -0.87375
H         41.45013        33.42441        -0.39034
H         40.44409        35.32370         0.21904
