         234
 CSIRO Nanostructure Databank - Neutral Graphene Oxide Data Set
C          1.39650         2.26068         1.21756
C          1.33015         3.63545         0.79941
C          2.56532         1.56556         1.25109
C          2.45920         4.36204         0.51165
C          1.26527         6.25285        -0.54035
C          1.29154         7.40382        -1.33730
C          2.45452         5.71865        -0.03801
C          2.48611         8.08688        -1.51630
C          1.29899        11.08983        -1.90704
C          1.26350        12.35326        -1.35521
C          2.49557        10.35730        -1.83691
C          2.44155        12.92939        -0.82025
C          1.17406        15.05802        -0.34213
C          1.14663        16.40670        -0.32889
C          2.42163        14.31854        -0.45805
C          2.40326        17.18557        -0.58993
C          2.38291        18.58902        -0.03558
C          3.81970         2.20020         0.83177
C          3.77038         3.67912         0.51954
C          5.12714         1.61650         1.15223
C          4.99784         4.51010         0.84340
C          3.69064         6.42778        -0.24172
C          3.70078         7.71666        -0.87272
C          4.93992         5.86329         0.15316
C          4.90974         8.50673        -0.96248
C          3.66269        10.82689        -1.22067
C          3.66777        12.18863        -0.79249
C          4.91444         9.99188        -1.23369
C          4.88665        12.84801        -0.36170
C          3.63090        14.98769        -0.20398
C          3.63290        16.42151        -0.15075
C          4.85668        14.25165        -0.03835
C          4.81358        17.10038         0.07623
C          3.53455        19.24631         0.19284
C          4.82663        18.57273         0.06010
C          6.28755         2.29258         0.80800
C          6.26499         3.73002         0.52344
C          7.56216         1.65684         0.85001
C          7.40928         4.40668         0.20785
C          6.11774         6.56685        -0.05289
C          6.12994         7.88064        -0.64206
C          7.33136         5.87991         0.52153
C          7.41250         8.59199        -0.72866
C          6.18675        10.74322        -0.83870
C          6.11362        12.14652        -0.36891
C          7.41342         9.98130        -0.52694
C          7.29957        12.77810         0.11051
C          6.02660        14.92695         0.40976
C          6.01857        16.38741         0.42532
C          7.21352        14.12603         0.58813
C          7.17175        17.19717         0.53536
C          5.99107        19.26210        -0.07566
C          7.27248        18.49485        -0.24542
C          8.71432         2.26855         0.33925
C          8.61439         3.63914        -0.24436
C          9.93370         1.57761         0.33517
C          9.83324         4.24969        -0.94956
C          8.75990         6.53879        -1.28576
C          8.66853         7.89857        -0.81092
C          9.91026         5.75547        -1.06743
C          9.83220         8.54376        -0.29027
C          8.60219        10.66535        -0.12880
C          8.56372        12.08753         0.18461
C          9.77779         9.92334         0.07236
C          9.74987        12.76219         0.58859
C          8.38597        14.61615         1.21535
C          8.35133        16.75241         1.14265
C          9.66700        14.10986         1.03176
C          9.68094        17.14592         0.61865
C          8.54274        19.26443         0.05419
C          9.73011        18.62788         0.32988
C         11.12487         2.15565        -0.17110
C         11.08764         3.43800        -0.81467
C         12.35906         1.46250        -0.07760
C         12.31659         3.92827        -1.25596
C         11.09667         6.48480        -0.69908
C         11.05108         7.79950        -0.21650
C         12.38799         5.97710        -1.08477
C         12.29795         8.36740         0.33364
C         10.97031        10.58073         0.65651
C         11.02410        12.06415         0.72685
C         12.24543         9.79445         0.78494
C         12.18380        12.71957         1.09408
C         10.83836        14.90050         1.61013
C         10.89514        16.46021         1.23809
C         12.19107        14.18455         1.38178
C         12.18298        17.18637         0.96226
C         10.99720        19.28624         0.27356
C         12.19207        18.59350         0.44001
C         13.59314         2.06221        -0.40497
C         13.58939         3.42773        -0.87319
C         14.82565         1.37138        -0.28156
C         14.78355         4.21425        -0.93947
C         13.63030         6.41852        -0.67057
C         13.63848         7.69409         0.08814
C         14.84315         5.64287        -0.83075
C         14.86416         8.52679        -0.07031
C         13.55040        10.52145         0.86092
C         13.51233        12.02621         1.09929
C         14.71692         9.90707         0.14820
C         14.70906        12.83801         0.71953
C         13.48060        14.94718         1.10366
C         13.41430        16.38521         0.68390
C         14.67777        14.20773         0.64501
C         14.67226        17.11181         0.29711
C         13.43296        19.25988         0.26886
C         14.66978        18.59271         0.28233
C         16.03804         1.99681        -0.61342
C         16.03464         3.42805        -0.99734
C         17.26090         1.30945        -0.51395
C         17.36409         4.17342        -0.89130
C         16.09585         6.32921        -0.56021
C         16.10483         7.78846        -0.33824
C         17.32059         5.61356        -0.58129
C         17.36717         8.39361        -0.17414
C         15.70989        10.85610        -0.23796
C         15.87668        12.13611         0.23784
C         17.59229         9.79562        -0.33401
C         17.25251        12.79738         0.08728
C         15.92907        14.92315         0.14184
C         15.96409        16.40557         0.39195
C         17.13360        14.19381         0.77216
C         17.14042        17.08574         0.32728
C         15.90095        19.25106         0.15441
C         17.12703        18.53290         0.10163
C         18.51415         1.97988        -0.48751
C         18.56520         3.40119        -0.52659
C         19.72701         1.25936        -0.27479
C         19.77985         4.07308        -0.27999
C         18.58223         6.21138        -0.26721
C         18.56157         7.61261         0.17969
C         19.78579         5.50965        -0.21269
C         19.81235         8.33641         0.56773
C         18.56754        10.54073         0.28720
C         18.43285        12.00558         0.72369
C         19.77378         9.83426         0.74807
C         19.72352        12.75199         0.38485
C         18.54180        14.91698         0.85500
C         18.50829        16.47948         0.61607
C         19.65823        14.14962         0.14858
C         19.54960        17.00121        -0.35637
C         18.29769        19.14455        -0.34823
C         19.46155        18.38107        -0.69808
C         20.93054         1.92077        -0.10510
C         20.98476         3.33445        -0.09422
C         22.23207         4.04503         0.06037
C         21.09026         6.22538        -0.15396
C         21.12051         7.71423         0.16685
C         22.30097         5.40042         0.00101
C         22.34838         8.50547         0.46376
C         21.05600        10.62791         0.68728
C         20.94768        12.05873         0.25887
C         22.31936         9.84712         0.58643
C         22.06817        12.75400        -0.23374
C         20.78387        14.82593        -0.37775
C         20.68361        16.25254        -0.73059
C         21.96871        14.09373        -0.59645
C         21.69279        16.88719        -1.48759
C         20.50625        18.99210        -1.43059
C         21.60667        18.24018        -1.82520
O          8.26821        15.73242         2.05906
O         20.38586        10.33871         1.97923
O         16.66013        10.42365        -1.16428
O          5.82031        10.49647        -2.25921
O          8.76223         3.62034        -1.73549
O         12.97751         7.56872         1.38535
O         13.80908        11.07779         2.17964
O          8.04887         6.37795         1.37658
O         19.03024         7.67298         1.60697
O         16.81793         3.75749        -2.19163
O         21.14911         7.25857        -1.22790
O          3.87203         2.73315        -0.57332
O         11.59482        17.15859         2.30598
O         13.77217        16.51522        -0.73991
O         11.38752         9.96655         1.94145
O          9.31283        16.38098        -0.55184
O         12.32991         5.02840        -2.12113
O         13.10639        14.59383         2.46329
O          2.48759         9.11294        -2.46619
O         19.02880        14.70079         2.17124
O         16.70191        14.01545         2.12590
H         17.54017        14.00131         2.66805
O         18.87825        17.11688         1.86832
H         19.11747        16.35189         2.47088
O          4.95639         4.73735         2.27963
H          5.73488         5.28164         2.52617
O         15.90747        14.83593        -1.31849
H         15.11959        15.35880        -1.60614
O          2.50082        17.32229        -2.04977
H          3.35667        17.76178        -2.24334
O          7.41452        18.11178        -1.65142
H          8.15403        17.44488        -1.65491
O         17.62481        12.90978        -1.29242
H         16.95197        13.46655        -1.75097
O          7.72541         6.03667        -2.00148
H          7.92155         5.08406        -2.21894
O         18.22253        11.92012         2.13814
H         19.03604        11.53111         2.53924
O         10.60875        14.87135         3.02674
H         11.43268        15.19734         3.45650
H          0.46281         1.77238         1.53098
H          0.33820         4.10717         0.76200
H          2.59923         0.53995         1.64663
H          0.31559         5.71936        -0.40539
H          0.38720         7.74553        -1.85636
H          0.42352        10.65526        -2.40513
H          0.33712        12.93859        -1.40535
H          0.23709        14.49720        -0.21266
H          0.19592        16.94872        -0.21688
H          1.41497        19.10554         0.04928
H          5.18177         0.57633         1.50713
H          3.53212        20.30738         0.48533
H          7.62739         0.62122         1.21530
H          5.99313        20.36229        -0.10655
H          9.97391         0.56785         0.76910
H          8.55791        20.33789        -0.19493
H         12.35711         0.43810         0.32174
H         11.02901        20.34715        -0.01958
H         14.82915         0.32770         0.06505
H         13.41945        20.34796         0.10015
H         17.24220         0.22543        -0.32532
H         15.91595        20.34542         0.03427
H         19.69432         0.16068        -0.24930
H         18.28677        20.22103        -0.58153
H         21.85835         1.34805         0.03705
H         23.15159         3.45512         0.18974
H         23.27418         5.90641         0.06917
H         23.31865         7.98842         0.42114
H         23.26906        10.39218         0.70111
H         23.03038        12.23542        -0.34880
H         22.86135        14.59144        -0.99897
H         22.57222        16.31966        -1.82026
H         20.43406        20.05739        -1.69294
H         22.41426        18.70844        -2.40490
