         621
 CSIRO Nanostructure Databank - Neutral Graphene Oxide Data Set
C          6.39849        30.64092        -0.32318
C          6.69663        31.65459         0.54654
C          8.27559        27.34019        -3.30353
C          8.30103        28.70029        -3.06067
C          7.22274        29.24610        -2.23673
C          8.11744        31.51184        -1.79520
C          7.19102        30.44191        -1.52048
C          8.61111        32.37745        -0.85280
C          7.83171        32.53820         0.35530
C          9.17281        34.54898         0.87191
C          8.11554        33.61126         1.18727
C          9.27363        35.76321         1.57739
C         10.76120        23.24479        -2.43953
C         10.76576        24.55991        -2.97957
C          9.55024        25.20094        -3.17425
C         10.79884        27.25528        -3.98811
C          9.46599        26.55695        -3.70213
C         10.77444        28.75219        -3.89542
C          9.55938        29.40509        -3.31227
C         10.94893        31.38506        -2.67253
C          9.69490        30.74129        -3.08526
C         10.85778        32.79842        -2.16533
C         10.03033        32.93689        -0.86342
C         11.17810        35.14448        -0.44035
C         10.09762        34.27135        -0.17478
C         11.28274        36.37545         0.29436
C         10.29767        36.70137         1.29181
C         11.42774        38.85508         1.75377
C         10.36303        37.94263         1.97047
C         11.53451        40.08045         2.45104
C         12.99428        19.46102        -0.31759
C         13.06900        20.68889        -0.96389
C         11.90244        21.32728        -1.46213
C         13.20801        23.31822        -2.18121
C         11.94342        22.61517        -2.03182
C         13.27451        24.57571        -2.81323
C         12.04059        25.24012        -3.21783
C         13.35228        27.24086        -3.96133
C         12.06120        26.54644        -3.66749
C         13.34759        28.73153        -4.15808
C         12.06943        29.51406        -3.97095
C         13.36712        31.72051        -3.41674
C         12.20757        30.81197        -3.21138
C         13.29473        33.05751        -3.09980
C         12.04672        33.67561        -2.41426
C         12.91057        35.96707        -1.86662
C         12.09427        34.89377        -1.52209
C         13.26555        37.01202        -0.99559
C         12.36941        37.27244         0.07673
C         13.60473        39.32550         0.68414
C         12.46383        38.49370         0.82631
C         13.78376        40.45269         1.49854
C         12.70900        40.88538         2.37215
C         14.19730        42.68646         3.36989
C         12.86141        42.02971         3.16143
C         14.12986        44.18031         3.61173
C         15.34599        15.42732         1.50797
C         15.36521        16.74136         0.95958
C         14.18261        17.43007         0.64795
C         15.45944        19.33755        -0.35007
C         14.20297        18.90672         0.37548
C         15.54508        20.73517        -0.81298
C         14.34939        21.38530        -1.13306
C         15.65412        23.33697        -1.87227
C         14.39627        22.68110        -1.72137
C         15.68374        24.67719        -2.38775
C         14.53314        25.25566        -2.90580
C         15.88969        27.38246        -3.44783
C         14.67946        26.48728        -3.78104
C         15.92676        28.77104        -4.02010
C         14.62450        29.53938        -4.17908
C         15.90344        31.73742        -3.78180
C         14.59642        31.04555        -3.96678
C         15.81875        33.21888        -3.84314
C         14.49695        33.87394        -3.52619
C         15.74099        35.92791        -2.70462
C         14.60074        35.29469        -3.12409
C         15.71312        37.27066        -2.01799
C         14.52659        37.77856        -1.18251
C         16.07573        39.49066         0.02174
C         14.76334        38.75860        -0.05602
C         16.07706        40.82920         0.60330
C         15.01313        41.23066         1.45039
C         16.44294        43.10376         2.24561
C         15.16977        42.37118         2.25772
C         16.51723        44.40801         2.99957
C         15.23975        44.98793         3.50626
C         16.28968        47.25515         3.69193
C         15.20329        46.38943         3.83100
C         16.23131        48.62098         4.05663
C         17.71499        11.50475         3.42807
C         17.70877        12.84605         2.90362
C         16.52092        13.47541         2.48371
C         17.79021        15.46791         1.77543
C         16.53416        14.78035         1.91890
C         17.82818        16.78728         1.21893
C         16.64967        17.38691         0.78371
C         17.99850        19.35730        -0.12919
C         16.73047        18.61805        -0.01580
C         18.03181        20.58106        -0.78382
C         16.81740        21.31009        -1.11522
C         18.12393        23.27233        -2.14825
C         16.85898        22.62727        -1.61630
C         18.16161        24.76184        -1.84533
C         16.86658        25.56074        -2.05177
C         18.32028        27.51160        -2.84462
C         17.01742        26.82294        -2.89668
C         18.39197        28.91675        -3.24404
C         17.18299        29.58115        -3.81768
C         18.34828        31.84234        -3.54813
C         17.09136        31.07108        -3.77949
C         18.43002        33.30121        -3.91368
C         17.08285        34.06311        -3.85017
C         18.01569        36.35763        -3.43613
C         16.99540        35.43420        -3.27043
C         18.22542        37.50881        -2.60676
C         17.09124        37.81831        -1.70800
C         18.40982        39.87163        -1.02685
C         17.24477        39.01205        -0.79785
C         18.36044        41.27163        -0.60974
C         17.15915        41.76042         0.27454
C         18.52064        43.72178         0.94262
C         17.41387        42.88505         1.15740
C         18.65414        44.96239         1.66444
C         17.67611        45.31662         2.71048
C         18.54929        47.71102         2.58931
C         17.58087        46.75397         3.15219
C         18.45802        49.09043         3.03168
C         17.30497        49.51303         3.83696
C         18.40304        51.69033         4.25774
C         17.30926        50.79901         4.41030
C         18.55292        52.83435         5.02799
C         20.14619         7.48192         4.95110
C         20.13982         8.78716         4.38923
C         18.92319         9.46417         4.15572
C         20.17368        11.55925         3.76137
C         18.88610        10.83174         3.78096
C         20.20129        12.94394         3.19787
C         18.94488        13.54086         2.71909
C         20.26493        15.53604         2.04755
C         18.99450        14.82389         2.14847
C         20.28055        16.89695         1.61617
C         19.08968        17.50068         1.11604
C         20.41084        19.45804         0.45281
C         19.16628        18.76646         0.49314
C         20.56678        20.54183        -0.53382
C         19.34651        21.16668        -1.15794
C         20.69324        23.31393        -1.71371
C         19.41678        22.54701        -1.76346
C         20.73931        24.65882        -2.02339
C         19.47346        25.45122        -1.98528
C         20.79651        27.54031        -2.42778
C         19.47524        26.86848        -2.41467
C         20.85826        28.97321        -2.84106
C         19.57231        29.61300        -3.18709
C         20.92457        31.76660        -3.27661
C         19.61010        31.08801        -3.24864
C         20.92080        33.18305        -3.27144
C         19.74277        33.93260        -3.60774
C         20.95109        36.00005        -3.07766
C         19.90481        35.31092        -3.72504
C         20.77176        37.32104        -2.45905
C         19.48713        38.06314        -2.31419
C         20.80535        40.09138        -1.51079
C         19.56631        39.32048        -1.57896
C         20.79968        41.43895        -1.02647
C         19.60317        42.03091        -0.52561
C         20.77923        44.12472        -0.02177
C         19.60429        43.30752         0.07719
C         20.77783        45.44490         0.50913
C         19.67434        45.86822         1.34893
C         20.62743        48.18661         1.33871
C         19.60511        47.23594         1.82250
C         20.57614        49.58835         1.87032
C         19.48139        49.97419         2.76924
C         20.75419        52.03459         3.41748
C         19.40794        51.41106         3.18212
C         20.91682        53.08775         4.27719
C         19.78056        53.59652         5.03978
C         21.15793        55.50772         6.02873
C         19.88897        54.73379         5.79992
C         20.94765        56.98751         5.72831
C         22.53651         5.06588         6.53829
C         21.33018         5.64578         6.10495
C         22.63351         7.32929         4.85525
C         21.32651         6.80672         5.30782
C         22.66790         8.71769         4.23287
C         21.40071         9.46301         4.12630
C         22.69170        11.50990         3.60705
C         21.44014        10.80190         3.79691
C         22.71933        12.82511         3.13809
C         21.47129        13.40065         2.51775
C         22.68957        15.62092         2.41464
C         21.47391        14.89428         2.34644
C         22.67243        17.00479         2.15145
C         21.50326        17.63519         1.66293
C         22.76905        19.75786         1.16115
C         21.55432        18.95893         1.09831
C         22.90555        20.91621         0.40334
C         21.90021        21.23928        -0.65324
C         23.09542        23.43711        -1.18254
C         21.98270        22.49421        -1.56952
C         23.24435        24.60483        -2.10438
C         21.99005        25.38447        -2.24494
C         23.32024        27.46586        -2.63723
C         22.04814        26.74590        -2.47850
C         23.39946        28.84982        -2.99956
C         22.13168        29.55780        -3.46640
C         23.37902        31.73615        -3.26669
C         22.14261        31.06160        -3.25331
C         23.39020        33.14737        -3.11426
C         22.16045        33.87171        -3.10236
C         23.38480        36.01284        -2.74695
C         22.15894        35.28470        -2.90057
C         23.35031        37.40822        -2.50043
C         22.08814        38.04222        -2.08871
C         23.26340        40.21386        -1.75915
C         22.04368        39.49371        -1.83760
C         23.24292        41.60456        -1.38752
C         22.00724        42.20852        -1.01351
C         23.15763        44.37063        -0.62603
C         21.96883        43.57994        -0.59753
C         23.09581        45.74428        -0.23814
C         21.92678        46.26643         0.32142
C         23.07676        48.61403         0.58439
C         21.95285        47.64606         0.88387
C         22.83079        50.06811         0.89587
C         21.79103        50.42487         1.81569
C         22.94601        52.50499         2.36959
C         21.84471        51.61055         2.55039
C         23.12036        53.63667         3.21314
C         22.32186        53.61086         4.52687
C         23.50193        55.85851         5.01851
C         22.38646        54.92574         5.31284
C         23.21690        57.32209         4.76609
C         21.91007        57.84247         5.26909
C         22.90625        60.07285         5.48372
C         21.78498        59.27204         5.42934
C         23.77385         5.63576         6.25933
C         25.07284         7.49727         5.27406
C         23.87588         6.81939         5.47288
C         25.13078         8.81402         4.69826
C         23.92521         9.47474         4.29896
C         25.16269        11.54514         3.86478
C         23.93129        10.83846         3.95009
C         25.19163        12.90320         3.41019
C         23.94275        13.56763         3.05690
C         25.17234        15.68671         2.65399
C         23.93421        14.93390         2.72283
C         25.14960        17.05091         2.51712
C         23.83960        17.82339         2.62570
C         25.17731        19.99967         2.00204
C         23.86580        19.26763         2.05986
C         25.29124        21.31665         1.29221
C         24.07656        21.81267         0.55993
C         25.57935        23.59543        -0.51316
C         24.22205        23.02559        -0.30829
C         25.71197        24.77493        -1.33707
C         24.53807        25.33425        -2.06466
C         25.76966        27.39782        -2.58399
C         24.52952        26.77409        -2.38409
C         25.83593        28.70366        -3.11334
C         24.64126        29.49060        -3.22451
C         25.88016        31.78095        -3.38997
C         24.61866        30.96924        -3.72399
C         25.87867        33.18905        -3.05449
C         24.61538        33.90451        -3.05656
C         25.85134        36.07676        -3.14874
C         24.60762        35.29668        -2.94412
C         25.80877        37.55026        -2.84832
C         24.53236        38.18578        -2.43935
C         25.77204        40.22096        -1.80021
C         24.49530        39.52474        -2.02780
C         25.75143        41.69486        -1.48124
C         24.44417        42.37768        -1.29672
C         25.67302        44.44422        -0.63944
C         24.40334        43.72685        -0.92638
C         25.64763        45.92086        -0.35054
C         24.32785        46.59342        -0.16599
C         25.57623        48.80251        -0.20939
C         24.20430        48.10893        -0.37354
C         25.65921        50.16885        -0.27721
C         23.68482        51.09403         0.50876
C         24.88011        53.21040         1.06393
C         23.78818        52.31743         1.23945
C         25.17841        54.21759         1.98086
C         24.17083        54.51921         2.95663
C         25.59028        56.48041         3.71021
C         24.25630        55.79072         3.71422
C         25.62492        57.71535         4.40569
C         24.40902        58.22942         4.90734
C         24.21421        59.55929         5.28703
C         26.34366         9.52262         4.63074
C         27.60850        11.57712         4.08749
C         26.38738        10.87048         4.18818
C         27.64424        12.91952         3.64800
C         26.41443        13.56681         3.27909
C         27.68638        15.69585         3.04742
C         26.48003        14.91231         2.59375
C         27.62944        17.14931         3.04713
C         26.43404        17.78612         2.41324
C         27.70100        20.06872         2.31575
C         26.45600        19.24868         2.15336
C         27.78782        21.26083         1.43040
C         26.63480        21.84707         0.93389
C         28.04333        23.51772        -0.25163
C         26.69790        23.00180         0.06473
C         28.17580        24.78523        -1.07137
C         26.92210        25.40938        -1.51128
C         28.36492        27.30986        -2.45707
C         27.01633        26.62326        -2.34996
C         28.35236        28.70666        -2.94611
C         27.17235        29.12699        -3.51337
C         28.35195        31.70656        -3.02157
C         27.12069        31.25817        -3.65658
C         28.32274        33.18193        -2.61503
C         27.07404        33.89067        -2.88287
C         28.38112        36.05516        -2.67771
C         27.18650        35.33749        -3.28851
C         28.40307        37.56413        -2.88512
C         27.07789        38.26548        -2.59989
C         28.26295        40.40289        -2.29886
C         27.02645        39.58314        -2.27234
C         28.23200        41.89413        -2.07119
C         26.94353        42.50612        -1.73989
C         28.18203        44.63972        -1.29031
C         26.95543        43.81951        -1.11439
C         28.15498        46.08810        -0.92777
C         26.87145        46.73529        -0.56209
C         28.12829        48.85281        -0.25687
C         26.84537        48.08061        -0.30789
C         28.07945        50.24772         0.19399
C         26.85947        50.92570         0.04912
C         27.89148        52.99171         0.95876
C         26.81568        52.30825         0.32698
C         27.69274        54.28992         1.57220
C         26.50973        54.84295         2.07735
C         26.63351        55.99311         2.92928
C         28.87119        13.63665         3.60403
C         30.11347        15.79188         3.49663
C         28.89648        15.04762         3.39227
C         30.18544        17.19855         3.32200
C         28.90173        17.94975         3.24043
C         30.26564        19.82207         2.17692
C         28.94514        19.38634         2.77368
C         30.29514        21.27299         1.77436
C         29.09261        21.88580         1.26749
C         30.39051        23.95088         0.71551
C         29.17912        23.08171         0.56623
C         30.53554        25.06362        -0.29497
C         29.43596        25.57673        -1.00047
C         30.77578        27.47563        -1.79954
C         29.54291        26.78818        -1.72649
C         30.89359        28.76808        -2.56957
C         29.65115        29.44387        -3.11917
C         30.88469        31.76544        -2.74779
C         29.66404        30.97862        -3.20038
C         30.80014        33.22767        -2.38092
C         29.59817        33.91679        -2.46353
C         30.75749        36.05741        -1.80486
C         29.52756        35.36919        -2.36683
C         30.83353        37.53100        -2.08331
C         29.52794        38.21525        -2.09617
C         30.76731        40.44607        -1.86339
C         29.50604        39.69074        -1.90626
C         30.74863        41.83724        -1.67220
C         29.50009        42.54817        -1.66356
C         30.61604        44.57095        -0.84805
C         29.46112        43.89270        -1.26109
C         30.46537        45.81305        -0.16708
C         29.38231        46.65160        -0.32575
C         30.66744        48.78629         0.55992
C         29.45685        48.12028        -0.14969
C         30.50609        50.29039         0.62721
C         29.27057        50.95249         0.59191
C         29.12819        52.31938         1.01299
C         31.38834        17.89401         3.24679
C         32.72824        19.96639         2.61640
C         31.41742        19.39855         3.10687
C         32.78027        21.17613         1.96041
C         31.55060        21.88021         1.56710
C         32.89840        23.78810         0.75222
C         31.64658        23.15709         0.96026
C         32.96130        25.07625         0.18750
C         31.79268        25.71494        -0.38107
C         33.21838        27.52969        -1.33708
C         31.88995        26.91734        -1.13731
C         33.31700        28.90938        -1.90942
C         32.07322        29.63052        -2.25831
C         33.23924        31.70385        -1.64104
C         32.07445        30.99205        -2.31056
C         33.28705        33.21587        -1.83987
C         32.03675        33.95232        -2.14141
C         33.27515        36.11983        -2.08002
C         32.05992        35.34560        -2.07996
C         33.28831        37.52571        -2.01311
C         32.01322        38.22928        -2.03140
C         33.32015        40.47581        -1.80159
C         32.00324        39.71472        -2.10181
C         33.21059        41.88234        -1.35222
C         31.99008        42.54418        -1.38685
C         33.26352        44.80091        -1.00736
C         31.94562        44.01423        -1.17936
C         33.36988        46.28499        -0.74620
C         32.36907        47.01952        -0.10500
C         31.98317        48.36577        -0.10143
C         34.04076        21.82067         1.68594
C         35.39696        23.73465         0.94830
C         34.12301        23.09107         1.14252
C         35.49760        25.03908         0.50228
C         34.25311        25.78404         0.21492
C         35.70552        27.65634        -0.82352
C         34.37125        27.09434        -0.50271
C         35.79618        28.89572        -1.41863
C         34.58787        29.64551        -1.72997
C         35.86299        31.72957        -2.00967
C         34.57605        31.00643        -1.86259
C         35.88265        33.22209        -2.13650
C         34.58577        33.95895        -1.97712
C         35.85749        36.17929        -2.13284
C         34.55012        35.41574        -2.31471
C         35.75947        37.57660        -1.68676
C         34.52661        38.26332        -1.78509
C         35.61855        40.30442        -0.88545
C         34.49340        39.66702        -1.46683
C         35.60298        41.75927        -0.44861
C         34.39410        42.57041        -0.87759
C         34.41712        43.93063        -0.71062
C         36.74870        25.70848         0.30208
C         38.12860        27.65497        -0.32660
C         36.86935        26.95977        -0.29827
C         38.24752        28.92922        -0.83945
C         37.14345        29.53910        -1.66909
C         38.23715        31.78390        -1.28842
C         37.10499        31.05412        -1.58513
C         38.24622        33.24691        -1.36017
C         37.12411        33.94473        -1.77897
C         38.32188        36.15647        -1.28755
C         37.13927        35.41480        -1.90957
C         38.10499        37.53826        -0.85743
C         36.90581        38.21959        -1.09070
C         36.78445        39.58317        -0.67829
C         39.41849        29.71668        -0.61283
C         40.58632        31.85886        -0.42594
C         39.43328        31.08607        -0.81674
C         40.56185        33.21807        -0.40440
C         39.40725        33.97110        -0.85050
C         39.38391        35.33943        -0.70011
O         14.80500        38.29819        -2.52702
O         24.13796        24.49253        -3.23389
O          9.99273        26.71449        -5.07143
O         18.26918        45.75429         3.98440
O         20.94348        28.63946        -1.42342
O          8.58963        31.58395        -3.10868
O         23.03939        47.86689         1.84495
O         26.66291        18.29584         1.04163
O         38.20667        35.93471        -2.75446
O         19.53421        21.33555        -2.60979
O         17.58497        37.65403        -0.34461
O         16.01556        18.41070        -1.31455
O         18.83498        25.17824        -0.63243
O         10.80574        33.75949        -3.23622
O         28.16609        45.65455        -2.35236
O         17.79102        33.80607        -5.10507
O         26.52997        43.74030         0.32160
O         33.54913        27.71121        -2.74402
O         28.34555        41.28233        -3.44059
O         11.81912        30.55405        -1.81495
O         13.40885        35.99469        -3.16709
O         22.73065         7.50487         3.40350
O         24.51233        50.90834        -0.60661
O         28.24897        20.30406         3.65441
O         24.30623        20.14588         3.15758
O         30.55083        31.54922        -4.18383
O         30.57418        28.74492        -3.99907
O         28.38586        23.46726        -1.69670
O         29.05374        48.73379        -1.41229
O         25.70962        37.04999        -4.24433
O         29.20830        38.77050        -0.77809
O         28.15277        32.10066        -1.62409
O         24.39104        22.26801         1.92717
O         32.83726        40.26759        -3.16435
O         15.73513        38.39889         0.97197
O         14.53585        30.45706        -5.30663
O         27.23608        30.14330        -4.47220
O         21.57860        20.09053        -1.50335
O         18.90872        52.17962         1.92528
O         31.51971        46.18050         0.67508
O         28.00258        17.73759         4.35720
O         35.96445        32.40133        -3.34547
O         33.98951        33.79867        -0.64862
O         20.08906        49.25514         0.48789
O         18.76419        31.66597        -2.14583
O         14.90022        33.64267        -4.91394
O         17.24118        42.03807        -1.16971
O         17.00603        43.19054         3.64457
O         23.14999        23.96116         0.17024
O         25.96573        40.66697        -0.40237
O         20.24312        12.75706         4.63961
O         23.61031        55.03039         6.18761
O         13.29123        27.84272        -5.30770
O         27.87654        26.39613        -3.51586
O         21.36212        37.26192        -1.09517
O         25.69690        53.03444        -0.06640
O         16.84666        28.98385        -5.12851
O         32.64594        44.64800        -2.33151
O         23.26101        56.90037         3.27603
O         34.11590        27.08591         0.93529
O         25.10770        46.21117         1.00272
O         35.29196        35.88056        -3.46206
O         22.11400        29.42963        -4.87841
O         11.19381        29.48059        -5.11908
O         18.97436        36.09135        -4.41552
O         10.74443        32.02360         0.04262
H         10.31204        32.07971         0.92151
O         27.50098        35.30878        -4.72640
H         26.65903        35.20902        -5.22156
O         22.98107        52.59458         5.32922
H         23.66532        53.05396         5.86790
O         28.73899        37.76623        -4.27888
H         28.20709        37.12049        -4.80686
O         30.63905        48.35112         1.94488
H         31.02593        47.44401         1.97380
O         31.14358        19.99369         4.40731
H         31.79235        19.64029         5.05024
O         15.01155        25.93623        -5.08141
H         14.73903        26.60101        -5.75714
O         26.69269        14.62883         1.16144
H         27.50950        14.09074         1.08522
O         30.58847        35.95058        -0.34551
H         31.32159        36.44003         0.08361
O         32.95169        31.50249        -0.21937
H         33.40347        32.22559         0.27443
O         21.38695        12.82673         1.16848
H         22.16540        13.13666         0.65887
O         14.29102        19.57363         1.69818
H         13.45773        19.38855         2.18084
O         18.03057        23.21989        -3.59461
H         18.28523        22.30837        -3.86648
O         36.81243        42.40627        -0.85966
H         36.82653        42.43636        -1.83837
O         17.82522        51.43840         1.34375
H         18.28130        50.83935         0.69932
O         23.60624        17.92979         4.06376
H         23.96251        18.80656         4.34843
O         22.33348        22.03689        -2.88723
H         21.69392        21.32328        -3.12103
O         16.49120        26.09871        -0.74509
H         17.32055        26.12484        -0.20548
O         21.39210        55.45905         7.46401
H         22.36963        55.47243         7.59121
O         30.14307        24.68286         1.99301
H         30.15985        24.02119         2.71889
O         30.39418        19.05344         0.94842
H         31.22307        19.32847         0.50214
O         14.73430        42.07023         4.59968
H         15.68166        42.35414         4.65776
O         37.48940        29.25145        -3.06539
H         36.86215        29.74325        -3.63834
O         23.75268        48.31878        -1.72406
H         23.78465        49.28412        -1.90638
O         24.45900        30.88228        -5.15926
H         23.63265        30.33102        -5.31198
H          5.58124        29.93999        -0.09755
H          6.08926        31.78758         1.45408
H          7.39578        26.75935        -2.98396
H          6.45919        28.50000        -1.95586
H          7.47238        33.82025         2.05471
H          8.53835        35.99370         2.36230
H          9.79826        22.72978        -2.30687
H          8.62702        24.71099        -2.82867
H          9.58547        38.18994         2.70827
H         10.73383        40.37547         3.14568
H         12.02013        18.96039        -0.20468
H         10.93107        20.81966        -1.36311
H         12.03490        42.33285         3.82292
H         13.18415        44.61445         3.97126
H         14.38067        14.91602         1.63870
H         13.21324        16.93226         0.80832
H         14.26079        46.79199         4.23296
H         15.32751        48.99617         4.56056
H         16.75640        10.96606         3.48015
H         15.56046        12.95033         2.59340
H         16.49021        51.07744         5.09150
H         17.76449        53.11524         5.74326
H         19.18012         7.03105         5.22601
H         17.97648         8.91599         4.27651
H         19.00998        55.08571         6.36121
H         20.02500        57.42126         6.14651
H         22.49367         4.15960         7.15868
H         20.37303         5.20482         6.41867
H         22.79067        61.14539         5.69465
H         20.79269        59.69530         5.64207
H         24.68958         5.18876         6.67246
H         26.00327         7.06890         5.67700
H         26.53440        58.33396         4.40062
H         25.07621        60.23901         5.34874
H         27.27862         9.02622         4.93008
H         28.54796        11.07494         4.36190
H         28.61982        54.80833         1.86880
H         27.60632        56.50766         2.96506
H         29.80274        13.11767         3.87233
H         31.04744        15.23409         3.66138
H         31.38414        50.85829         0.97305
H         30.00202        52.83276         1.44000
H         32.33697        17.33826         3.31566
H         33.66715        19.49304         2.94591
H         34.13033        46.80857        -1.34565
H         32.50334        49.08356        -0.75154
H         34.96443        21.29924         1.97942
H         36.31020        23.16423         1.17582
H         35.62060        41.76365         0.67892
H         35.31561        44.39059        -0.27144
H         37.66316        25.19890         0.64278
H         38.98450        27.20266         0.19822
H         38.91040        38.04896        -0.30946
H         37.65873        40.08653        -0.24164
H         40.29368        29.23562        -0.14897
H         41.48285        31.31664        -0.09146
H         41.44024        33.78240        -0.05914
H         40.20330        35.84437        -0.16659
