         640
 CSIRO Nanostructure Databank - Neutral Graphene Oxide Data Set
C         23.00119        27.39423        -0.07543
C         22.99390        28.77003         0.09898
C         22.95740        31.72470        -0.03340
C         22.95467        33.09808         0.06548
C         22.92688        36.00366         0.45855
C         22.90113        37.31889         0.80153
C         22.91116        40.36993         0.74105
C         22.94460        41.65838         0.31363
C         22.98024        44.54654        -0.23032
C         22.98694        45.91318        -0.33371
C         25.39994        24.63082        -0.85408
C         24.21354        25.30339        -0.64064
C         25.39599        27.46802        -0.54925
C         24.19381        26.72171        -0.42709
C         25.38730        28.84890        -0.34726
C         24.17686        29.52527        -0.05200
C         25.37691        31.68483         0.19239
C         24.17119        30.98842         0.04743
C         25.39644        33.10601         0.30657
C         24.15907        33.83156         0.25092
C         25.38750        35.95137         0.55279
C         24.15816        35.25573         0.40693
C         25.40460        37.36660         0.75007
C         24.14214        38.04874         1.04504
C         25.41422        40.27912         0.65527
C         24.14728        39.63917         1.01474
C         25.40815        41.68843         0.34105
C         24.18436        42.38850         0.18636
C         25.42278        44.52277         0.01225
C         24.18960        43.80664        -0.02746
C         25.43490        45.94784        -0.08089
C         24.20632        46.65364        -0.23128
C         25.40991        48.75965        -0.09662
C         24.21561        48.06391        -0.24760
C         27.93324        23.15006        -1.02455
C         27.88111        24.60983        -0.91909
C         26.64648        25.30341        -0.92206
C         27.91625        27.46805        -0.57710
C         26.65105        26.80641        -1.06926
C         27.92111        28.84504        -0.33862
C         26.65439        29.65150        -0.55746
C         27.91045        31.67493         0.24877
C         26.64005        30.87701         0.36025
C         27.89223        33.07607         0.45495
C         26.62948        33.80301         0.47904
C         27.84800        35.94285         0.70530
C         26.63222        35.22467         0.57428
C         27.86833        37.35827         0.64745
C         26.61530        38.09462         0.68361
C         27.84808        40.23468         0.27080
C         26.59865        39.52676         0.61231
C         27.88821        41.70960         0.37529
C         26.64965        42.40736         0.27349
C         27.90079        44.53585         0.19571
C         26.65757        43.82114         0.16739
C         27.90700        45.95246         0.13914
C         26.66329        46.67234         0.02168
C         27.90500        48.86209         0.30209
C         26.63714        48.08682         0.02196
C         27.96622        50.21180        -0.36427
C         30.27878        23.14544        -0.21013
C         29.04071        22.44571        -0.72549
C         30.37871        24.52471        -0.87296
C         29.09646        25.30913        -0.74924
C         30.35571        27.39332        -0.23593
C         29.12343        26.71688        -0.51760
C         30.35784        28.79571         0.00834
C         29.12937        29.52333        -0.03655
C         30.35928        31.66093         0.28218
C         29.13237        30.96525         0.16239
C         30.35214        33.07793         0.51050
C         29.11258        33.76395         0.61564
C         30.37432        35.93456         0.75710
C         29.10317        35.19626         1.06974
C         30.36736        37.34232         0.67049
C         29.11643        38.03959         0.60936
C         30.40573        40.20463         0.49142
C         29.14915        39.46875         0.31197
C         30.36170        41.66697         0.83610
C         29.10205        42.39459         0.43397
C         30.38061        44.51537         0.30854
C         29.13240        43.81416         0.33091
C         30.39276        45.92686         0.17785
C         29.15538        46.66199         0.14253
C         30.40233        48.77007        -0.06657
C         29.17204        48.07042         0.06725
C         30.41211        50.18516        -0.27744
C         29.14722        50.84338        -0.53869
C         32.81897        20.27388        -0.44280
C         31.61146        20.97432        -0.36936
C         32.80388        23.08626        -0.40536
C         31.57672        22.37144        -0.38762
C         32.81249        24.53372        -0.34333
C         31.60784        25.26604        -0.41589
C         32.83170        27.35554         0.00295
C         31.59708        26.66286        -0.22339
C         32.81942        28.76719         0.27280
C         31.59543        29.47499         0.27500
C         32.79558        31.60444         0.56607
C         31.60624        30.92446         0.37976
C         32.84421        33.07091         0.23754
C         31.58152        33.79314         0.60675
C         32.82969        35.93976         0.68807
C         31.59986        35.21843         0.69938
C         32.83977        37.35043         0.62671
C         31.60458        38.06201         0.57110
C         32.86363        40.22329         0.59236
C         31.60605        39.50316         0.55852
C         32.85498        41.64976         0.50711
C         31.63557        42.38647         0.49286
C         32.87482        44.49836         0.27077
C         31.62933        43.78486         0.35963
C         32.87302        45.91860         0.14446
C         31.63624        46.63434         0.10427
C         32.87576        48.76790        -0.13167
C         31.64058        48.05146        -0.02911
C         32.86755        50.17569        -0.26881
C         31.64478        50.88541        -0.34088
C         32.85405        53.02812        -0.27237
C         31.68776        52.33210        -0.40363
C         35.34554        18.79184        -0.79341
C         35.31051        20.23184        -0.62703
C         34.05532        20.94351        -0.45167
C         35.26902        23.10799        -0.29322
C         34.03832        22.37871        -0.37721
C         35.27458        24.49601        -0.27643
C         34.04883        25.23167        -0.24974
C         35.30697        27.35570         0.11464
C         34.05663        26.64905        -0.07279
C         35.26705        28.75108         0.47810
C         34.06423        29.44033         0.54571
C         35.30421        31.63341         0.82243
C         34.01676        30.87366         1.05196
C         35.30202        33.04869         0.69387
C         34.10563        33.75846         0.65882
C         35.34811        35.94086         0.56090
C         34.10697        35.21450         1.01884
C         35.33532        37.35723         0.52906
C         34.09230        38.07740         0.61218
C         35.33891        40.22366         0.59903
C         34.09147        39.49952         0.59772
C         35.31561        41.63014         0.57676
C         34.09711        42.36027         0.45739
C         35.35104        44.50556         0.30665
C         34.10394        43.78261         0.35088
C         35.34843        45.91976         0.16708
C         34.11134        46.63726         0.07577
C         35.36419        48.77018        -0.03747
C         34.11849        48.04810        -0.05963
C         35.38719        50.18244        -0.10861
C         34.15424        50.91323        -0.56524
C         35.30904        53.04847         0.10503
C         34.13153        52.37331        -0.18190
C         35.32857        54.49014         0.29932
C         37.71964        18.88426        -1.50801
C         36.48581        18.12754        -1.09844
C         37.75845        20.25781        -0.86336
C         36.53729        20.92750        -0.58114
C         37.79788        23.07831        -0.02667
C         36.49338        22.30139         0.08336
C         37.80272        24.54436        -0.21570
C         36.53467        25.27889        -0.53423
C         37.78957        27.38742         0.11376
C         36.53067        26.69335        -0.01223
C         37.80904        28.75068         0.50887
C         36.54490        29.40049         0.85416
C         37.86132        31.68858         1.14312
C         36.54041        30.92777         1.09502
C         37.75388        33.07041         0.53912
C         36.57314        33.77186         0.55307
C         37.75180        35.94363         0.15141
C         36.54930        35.22358         0.36891
C         37.79055        37.35915         0.22736
C         36.57189        38.07363         0.41333
C         37.83096        40.17526         0.45077
C         36.59082        39.50050         0.51448
C         37.88362        41.61726         0.70861
C         36.56201        42.38437         0.75490
C         37.82183        44.49819         0.36155
C         36.58555        43.82012         0.45401
C         37.82025        45.91749         0.21410
C         36.58758        46.62836         0.16162
C         37.82587        48.76293         0.16424
C         36.59156        48.05322         0.09886
C         37.82529        50.19556         0.19236
C         36.59631        50.89629         0.06466
C         37.76679        53.02406         0.44679
C         36.58372        52.34054         0.19026
C         37.74258        54.46577         0.92678
C         36.44734        55.16209         0.62709
C         40.29848        16.03352        -1.71292
C         39.09515        16.72805        -1.66648
C         40.23154        18.83634        -1.23853
C         39.03125        18.12207        -1.42046
C         40.23735        20.19809        -0.85225
C         39.01181        20.87802        -0.66879
C         40.26916        23.06697        -0.72613
C         39.05058        22.31440        -0.30876
C         40.24731        24.56482        -0.62905
C         38.98755        25.25605        -0.27285
C         40.27321        27.38525         0.00769
C         39.01654        26.69080        -0.11677
C         40.27387        28.79319         0.26564
C         39.04141        29.49326         0.50566
C         40.27500        31.61859         0.46481
C         39.05648        30.90261         0.63639
C         40.27758        33.03626         0.29288
C         38.98994        33.70706         0.07465
C         40.28115        35.92286        -0.12681
C         38.98792        35.21739        -0.14980
C         40.27583        37.36972        -0.12895
C         39.04148        38.06694         0.08076
C         40.29631        40.20620         0.11233
C         39.05274        39.48419         0.19183
C         40.31075        41.64372         0.19240
C         39.10790        42.36696         0.39346
C         40.30446        44.49454         0.16577
C         39.07871        43.77778         0.34842
C         40.30886        45.91878         0.06959
C         39.05176        46.64038         0.15065
C         40.36323        48.75144         0.35509
C         39.04379        48.04044         0.18491
C         40.29730        50.24120         0.14246
C         39.06336        50.92122         0.23858
C         40.26976        53.05084         0.39939
C         39.04524        52.35272         0.36236
C         40.28367        54.53548         0.72417
C         38.96742        55.19497         0.41847
C         40.07861        57.06802        -0.67865
C         38.91542        56.40102        -0.25249
C         42.78595        16.06451        -1.74547
C         41.54773        16.70870        -1.66101
C         42.84720        18.90495        -1.36263
C         41.51251        18.17522        -1.57074
C         42.83353        20.24135        -0.75939
C         41.51081        20.83369        -0.30721
C         42.75662        23.06196        -0.05252
C         41.55022        22.32648        -0.58913
C         42.80029        24.53669        -0.34092
C         41.55235        25.29562        -0.49201
C         42.76290        27.37733         0.05420
C         41.51849        26.70887        -0.09481
C         42.75454        28.79524         0.23458
C         41.51568        29.49406         0.31373
C         42.73676        31.65197         0.34450
C         41.51368        30.92047         0.38215
C         42.72591        33.06890         0.23420
C         41.47532        33.75781         0.13756
C         42.73241        35.86798        -0.39228
C         41.45922        35.19011        -0.07650
C         42.72882        37.36650        -0.61316
C         41.48448        38.09270        -0.27159
C         42.77456        40.22375        -0.12388
C         41.51048        39.50462        -0.10672
C         42.77268        41.65042        -0.01767
C         41.53991        42.35798         0.07634
C         42.75950        44.50552        -0.08771
C         41.53407        43.78635         0.06695
C         42.74207        45.92550        -0.23718
C         41.50844        46.61091        -0.17511
C         42.75901        48.80610        -0.45150
C         41.43228        48.08589        -0.50180
C         42.74044        50.24663        -0.30661
C         41.50630        50.94558        -0.00503
C         42.74152        53.08110         0.07182
C         41.50603        52.37826         0.15031
C         42.80261        54.57108         0.34863
C         41.47116        55.22953         0.12744
C         42.55144        57.15852        -0.93809
C         41.36012        56.47903        -0.48250
C         44.01118        16.75231        -1.60447
C         45.32918        18.83969        -1.10604
C         44.08773        18.11792        -1.33738
C         45.31138        20.22260        -0.75611
C         44.03643        20.91941        -0.54794
C         45.24246        23.07113        -0.18520
C         44.04862        22.33237        -0.27055
C         45.23610        24.47492        -0.11174
C         44.00280        25.22075        -0.16664
C         45.24656        27.36214         0.12398
C         43.99901        26.66135        -0.03282
C         45.22445        28.80297         0.31246
C         43.99086        29.50927         0.32921
C         45.19396        31.64997         0.56565
C         43.97691        30.93482         0.40555
C         45.17941        33.09584         0.49664
C         43.97068        33.79815         0.21130
C         45.22298        35.92132        -0.04173
C         44.00515        35.18771        -0.07185
C         45.26993        37.36497        -0.21483
C         44.05606        38.12485        -0.72806
C         45.23516        40.25066        -0.12049
C         44.00223        39.54678        -0.22420
C         45.23911        41.67593        -0.07061
C         44.00183        42.37336        -0.06199
C         45.22047        44.51774        -0.25520
C         43.99499        43.80101        -0.12091
C         45.18358        45.92984        -0.46858
C         43.97211        46.63869        -0.47578
C         45.16112        48.81326        -1.03294
C         43.93233        48.08732        -0.64658
C         45.16180        50.32736        -0.86651
C         43.92948        50.98471        -0.40078
C         45.19527        53.12394        -0.28791
C         43.94999        52.39785        -0.17662
C         45.17810        54.54888        -0.41455
C         43.95158        55.24652        -0.35409
C         43.78779        56.56420        -0.85781
C         47.76605        18.91856        -1.16517
C         46.58045        18.21022        -1.29299
C         47.76565        20.27110        -0.77495
C         46.53436        20.91902        -0.57309
C         47.79271        23.09232        -0.11757
C         46.51632        22.29838         0.04481
C         47.77088        24.50049         0.09232
C         46.51458        25.23255        -0.33717
C         47.77911        27.38923         0.07865
C         46.45637        26.67414         0.08104
C         47.70682        28.82750         0.50901
C         46.44025        29.51744         0.49684
C         47.64849        31.62073         1.01451
C         46.40106        30.91849         0.68944
C         47.61735        33.12011         0.96360
C         46.38148        33.83292         0.57664
C         47.70382        35.92102         0.24578
C         46.40912        35.21043         0.29493
C         47.74197        37.40223         0.05982
C         46.44917        38.09614        -0.06574
C         47.70849        40.25131         0.05381
C         46.47649        39.53776        -0.06963
C         47.71222        41.68083         0.00832
C         46.47634        42.39781        -0.08112
C         47.71794        44.53756        -0.21841
C         46.46748        43.81618        -0.19566
C         47.73367        45.93084        -0.42699
C         46.46497        46.60225        -0.78906
C         47.75988        48.82109        -0.98599
C         46.46615        48.06282        -1.10426
C         47.71877        50.32517        -0.82675
C         46.43516        51.03823        -0.67462
C         47.69642        53.15241        -0.48927
C         46.43423        52.41162        -0.42152
C         47.61620        54.57874        -0.65161
C         46.42068        55.23542        -0.65756
C         50.24006        20.26455        -0.13411
C         49.08631        21.02061        -0.74585
C         50.22445        23.10844         0.12489
C         49.00844        22.41978        -0.17279
C         50.19347        24.49953         0.45259
C         48.94891        25.18972         0.39246
C         50.17322        27.36845         0.83680
C         48.85305        26.62732         0.86444
C         50.18024        28.74567         0.77827
C         48.91545        29.48339         0.72042
C         50.15125        31.58178         0.94533
C         48.94218        30.90599         0.90117
C         50.18091        33.05804         0.83978
C         48.91548        33.81388         0.74185
C         50.14248        36.04820         1.09541
C         48.87631        35.29073         0.92031
C         50.17776        37.47195         0.68502
C         48.98152        38.14922         0.39003
C         50.19435        40.27805         0.34572
C         48.96010        39.55989         0.25193
C         50.18797        41.70239         0.21348
C         48.94882        42.40443         0.06518
C         50.18567        44.55131        -0.01928
C         48.94985        43.82500        -0.04208
C         50.18537        45.97413        -0.16820
C         48.95526        46.67555        -0.38759
C         50.19299        48.81941        -0.40394
C         48.97439        48.09002        -0.56225
C         50.19636        50.26510        -0.42003
C         48.90279        50.99244        -0.15657
C         50.17735        53.12158        -0.65880
C         48.91646        52.47381        -0.46905
C         51.36761        20.92197         0.22176
C         52.65032        23.06156         0.54110
C         51.44419        22.37349         0.24744
C         52.62077        24.47556         0.80149
C         51.41851        25.16712         0.79584
C         52.68752        27.34626         0.97540
C         51.39879        26.60719         1.26866
C         52.67943        28.76037         0.82762
C         51.42796        29.49176         0.82733
C         52.64152        31.66773         0.80224
C         51.40673        30.89256         0.85160
C         52.68603        33.03185         0.96070
C         51.43469        33.77865         1.20022
C         52.70068        36.00629         0.99189
C         51.43244        35.28090         1.26224
C         52.64977        37.42299         0.84208
C         51.43022        38.15069         0.70107
C         52.66184        40.30424         0.48916
C         51.42635        39.57664         0.51237
C         52.64301        41.70549         0.38299
C         51.41990        42.42094         0.25216
C         52.65634        44.57893         0.10478
C         51.41360        43.84932         0.13154
C         52.64813        45.98606        -0.01200
C         51.42298        46.70113        -0.13178
C         52.67937        48.91120        -0.00747
C         51.40963        48.12130        -0.21858
C         52.64047        50.28199        -0.62020
C         51.39569        50.98195        -0.57620
C         51.35071        52.42173        -0.70843
C         55.10551        23.07343         0.70047
C         53.90878        22.38739         0.55647
C         55.15732        24.45956         0.93262
C         53.87837        25.16971         1.30262
C         55.13535        27.34165         0.83362
C         53.89853        26.64933         0.97248
C         55.14026        28.76410         0.69327
C         53.90572        29.45283         0.68201
C         55.18251        31.66264         0.46916
C         53.88058        30.91556         0.48520
C         55.20844        33.11041         0.76135
C         53.96166        33.80003         1.25355
C         55.12740        35.96701         0.57984
C         53.90250        35.27929         0.91186
C         55.10885        37.35512         0.44556
C         53.95323        38.16463         0.97753
C         55.10120        40.24748         0.13448
C         53.92187        39.59226         0.49479
C         55.12865        41.68339         0.02614
C         53.94130        42.44362         0.57205
C         55.11451        44.53613        -0.18581
C         53.89567        43.87481         0.13575
C         55.13871        45.94301        -0.32279
C         53.95564        46.72408         0.17125
C         55.08668        48.77456        -0.76303
C         53.92369        48.13630        -0.33165
C         55.02884        50.16734        -1.12474
C         53.83962        50.87144        -1.06881
C         57.64327        24.50601         0.86933
C         56.38577        25.18704         0.89891
C         57.61333        27.33176         0.76055
C         56.38015        26.61767         0.85083
C         57.63458        28.76309         0.67911
C         56.39870        29.49107         0.63402
C         57.66376        31.62093         0.58731
C         56.43394        30.89641         0.58355
C         57.66370        33.05776         0.57237
C         56.39792        33.78638         0.67854
C         57.59383        35.90409         0.36497
C         56.39498        35.24284         0.54558
C         57.60275        37.26797        -0.15920
C         56.26458        38.04724        -0.10085
C         57.51793        40.14288        -0.45781
C         56.33144        39.51349        -0.11756
C         57.47417        41.58863        -0.90776
C         56.28389        42.34906        -0.35717
C         57.51155        44.46100        -0.77785
C         56.31062        43.77839        -0.42477
C         57.49676        45.84606        -0.99535
C         56.31032        46.60623        -0.75598
C         57.58076        48.68685        -1.12294
C         56.32249        48.03190        -0.89984
C         58.83010        25.19334         0.81599
C         60.07179        27.32844         0.69188
C         58.84576        26.61590         0.75667
C         60.08538        28.70421         0.63984
C         58.87591        29.45701         0.63442
C         60.10150        31.64322         0.58604
C         58.89552        30.90221         0.59647
C         60.09103        33.02804         0.59802
C         58.88259        33.75708         0.59074
C         60.09446        35.98957         0.26331
C         58.89010        35.26496         0.80727
C         60.06792        37.28835        -0.11838
C         58.84293        38.05060        -0.22868
C         59.98745        40.20467        -0.65480
C         58.77998        39.42516        -0.49359
C         59.98686        41.56716        -0.74498
C         58.77798        42.34066        -0.75317
C         59.99254        44.52555        -0.76787
C         58.77385        43.72589        -0.80048
C         59.98272        45.84216        -1.06320
C         58.72552        46.50864        -1.56698
C         58.72481        47.99591        -1.37299
O         49.20268        35.82002         2.22850
O         49.62862        33.46229        -0.48905
O         42.62138        36.45034        -1.75634
O         38.86324        34.28170        -1.27590
O         51.43555        34.48048         2.50372
O         56.75835        37.44272        -1.34415
O         44.98258        49.68808        -2.19160
O         42.17658        18.86467        -2.68408
O         47.99328        49.73442        -2.12456
O         54.45960        31.35210        -0.80229
O         40.85626        25.15142        -1.82131
O         24.15727        38.87208         2.25073
O         41.01057        22.61524        -1.90013
O         37.27884        42.02026         1.98816
O         38.71823        22.66726         1.07872
O         28.45903        39.77812        -0.99297
O         46.48539        47.09517        -2.20191
O         48.00257        36.46847        -1.07606
O         47.54353        32.43898         2.25424
O         36.47050        29.97488         2.22986
O         41.43774        20.59589         1.12853
H         41.87044        21.36337         1.58289
O         53.79867        25.09975         2.77140
H         52.93024        25.50122         3.02522
O         43.12815        54.68219         1.78803
H         42.31220        54.40473         2.27509
O         48.63621        50.85650         1.28448
H         49.39577        51.24912         1.76469
O         37.81341        54.39831         2.38941
H         38.73861        54.13975         2.62393
O         44.30953        38.29777        -2.15951
H         43.96544        37.48499        -2.60063
O         37.55599        19.13945        -2.95789
H         36.73161        19.65970        -3.06955
O         29.05883        35.11563         2.56148
H         29.09818        36.03561         2.90083
O         48.26206        27.40574        -1.31801
H         47.74961        28.08849        -1.80174
O         58.95938        35.44392         2.26745
H         58.18969        34.97678         2.65738
O         36.27998        22.02220         1.50084
H         37.17748        21.92636         1.90042
O         46.64727        25.27451        -1.81343
H         47.40816        25.88011        -1.99948
O         26.62367        30.33594         1.71892
H         26.67288        31.08866         2.34506
O         46.47378        22.03901         1.50584
H         47.27233        21.51728         1.73652
O         54.13003        46.81670         1.64334
H         53.51070        47.53380         1.93968
O         36.54839        25.40720        -2.01608
H         37.35262        25.91607        -2.25856
O         33.86214        30.77105         2.51260
H         34.70301        30.37164         2.84675
O         49.43434        21.19940        -2.16342
H         50.27101        21.71004        -2.19680
O         40.98013        48.19344        -1.88341
H         41.70775        47.89079        -2.46682
O         26.66961        30.09467        -1.93706
H         26.69364        29.28159        -2.49299
O         30.56900        24.26309        -2.29966
H         30.60806        25.12626        -2.76224
O         58.69637        46.28660        -3.02447
H         58.65711        45.31627        -3.16614
O         30.11505        23.36438         1.21605
H         30.10482        22.49192         1.66118
O         51.30467        26.51053         2.75625
H         51.36150        27.42612         3.10784
O         27.87182        49.13089         1.75569
H         28.69550        49.61572         1.97711
O         52.73266        49.15745         1.49083
H         53.45371        49.80901         1.63521
O         40.47118        54.59838         2.22422
H         40.42750        55.55038         2.46484
O         54.14477        42.49822         2.04197
H         54.91348        43.08507         2.20814
O         40.77425        48.56272         1.74407
H         40.08963        48.96337         2.31962
O         38.14706        31.93417         2.55836
H         37.84182        31.13332         3.04470
O         32.89593        33.12102        -1.25963
H         32.04874        32.74897        -1.58886
O         54.19688        38.28213         2.43976
H         54.09035        37.38479         2.82339
O         42.54004        23.01980         1.43743
H         43.39312        23.26629         1.85923
O         57.25871        41.51969        -2.36687
H         56.54864        40.86261        -2.53039
O         30.30257        41.67679         2.32800
H         31.18517        41.39778         2.65510
O         34.17961        35.24039         2.50193
H         34.23282        36.18162         2.77415
O         54.07025        33.75164         2.72893
H         53.19602        34.06846         3.07299
O         26.63902        27.08022        -2.53537
H         25.87422        26.59056        -2.90860
O         48.44036        26.57818         2.25788
H         49.21404        26.25400         2.77449
O         34.24878        50.91931        -2.04649
H         34.26744        49.98306        -2.33937
H         22.07269        26.81739         0.04271
H         22.05139        29.26939         0.36216
H         22.00550        31.19863        -0.18719
H         21.99425        33.62503        -0.00429
H         21.97218        35.48714         0.29398
H         21.93973        37.83173         0.93968
H         21.94686        39.87992         0.93226
H         21.99275        42.17659         0.13793
H         22.02072        44.01779        -0.30246
H         22.04454        46.46095        -0.47887
H         25.37558        23.53297        -0.90167
H         23.27141        24.74277        -0.56044
H         25.37816        49.85682        -0.05723
H         23.26700        48.61077        -0.34620
H         27.03290        22.61477        -1.35952
H         27.03368        50.74074        -0.60553
H         29.01767        21.34835        -0.79920
H         29.15453        51.86191        -0.95183
H         32.77887        19.17720        -0.47919
H         30.67725        20.39686        -0.32277
H         32.79960        54.12387        -0.21289
H         30.74462        52.89180        -0.46062
H         34.43058        18.21339        -0.60248
H         34.39713        55.05570         0.15856
H         36.46660        17.03197        -1.18667
H         36.39452        56.24691         0.80152
H         40.29010        14.94237        -1.85144
H         38.16264        16.16130        -1.79676
H         40.00117        58.03955        -1.18466
H         37.94105        56.86680        -0.46022
H         42.80870        14.97351        -1.88273
H         42.44625        58.15679        -1.38610
H         44.93272        16.15479        -1.64796
H         44.65674        57.09557        -1.27183
H         48.71843        18.41179        -1.37333
H         46.62397        17.15280        -1.58632
H         48.53994        55.16123        -0.76751
H         46.41429        56.32806        -0.77032
H         50.21449        19.16557        -0.09880
H         50.21071        54.21154        -0.79404
H         52.23336        20.34455         0.57711
H         52.28981        52.97305        -0.84939
H         56.03658        22.50698         0.55945
H         53.94681        21.31008         0.34726
H         55.92292        50.66584        -1.51961
H         53.82868        51.90602        -1.43986
H         57.67036        23.41000         0.92684
H         57.62784        49.78356        -1.05909
H         59.78574        24.64951         0.81859
H         61.01646        26.76588         0.68874
H         61.05292        29.22119         0.59735
H         61.07080        31.12789         0.59447
H         61.05160        33.55928         0.63253
H         61.06710        35.47890         0.30328
H         61.01680        37.77021        -0.39607
H         60.95372        39.68272        -0.66671
H         60.95286        42.08698        -0.81305
H         60.93857        44.04156        -0.48519
H         60.91634        46.42430        -1.04357
H         59.67105        48.53612        -1.52683
