         282
 CSIRO Nanostructure Databank - Neutral Graphene Oxide Data Set
C        -11.23382         0.47422        -0.59456
C        -10.05122         1.29373        -0.46142
C         -8.75460         0.56436        -0.45107
C         -7.61353         1.33743         0.19385
C         -6.28931         0.58186        -0.00352
C         -5.09377         1.36080         0.58352
C         -3.85374         0.58468         0.15248
C         -2.55285         1.27591        -0.06980
C         -1.26972         0.51820         0.02888
C         -0.00669         1.30270        -0.12872
C          1.29289         0.56998         0.02981
C          2.47213         1.32781         0.63330
C          3.76953         0.58799         0.29635
C          5.08348         1.32757         0.31416
C          6.34765         0.57914         0.70711
C          7.57874         1.34962         0.28393
C          8.76015         0.65504         0.07785
C          9.98359         1.35991        -0.13129
C         11.18202         0.58969        -0.35664
C        -10.00877         2.67084        -0.51206
C         -8.74627         3.40975        -0.58310
C         -7.55963         2.73777        -0.35734
C         -6.25740         3.37177        -0.57545
C         -5.02741         2.77044         0.00527
C         -3.84987         3.45021         0.05926
C         -2.56874         2.72333         0.32856
C         -1.28250         3.45630         0.48085
C         -0.03776         2.85099        -0.15727
C          1.24173         3.55386         0.31231
C          2.54921         2.79483         0.11591
C          3.77205         3.52787         0.73145
C          5.07421         2.81853         0.36732
C          6.36927         3.50423         0.52276
C          7.55919         2.79032         0.30897
C          8.80086         3.50443         0.13453
C          9.97928         2.77738        -0.08874
C         -8.71147         4.84992        -0.79637
C         -7.54618         5.56679        -0.87119
C         -6.25508         4.85088        -0.93851
C         -4.96061         5.61259        -0.81132
C         -3.70884         4.83236        -0.48980
C         -2.44610         5.59305        -0.22196
C         -1.33716         4.98280         0.65718
C         -0.02142         5.69660         0.21861
C          1.23734         4.90114         0.49681
C          2.49209         5.67511         0.76502
C          3.80851         5.01753         0.32502
C          5.07298         5.71396         0.86002
C          6.37677         4.95851         0.71687
C          7.60760         5.67283         0.32037
C          8.74147         4.95202         0.05181
C         -7.52036         7.09596        -0.91168
C         -6.34421         7.63909        -0.05860
C         -5.00324         7.07530        -0.52264
C         -3.77416         7.78619         0.02622
C         -2.43885         7.12104        -0.43295
C         -1.30492         7.85451         0.28492
C         -0.06410         7.14937         0.70200
C          1.20190         8.00705         0.79950
C          2.47691         7.17092         0.89239
C          3.77954         7.96110         0.81239
C          5.09463         7.23309         0.83665
C          6.41340         7.96196         0.51266
C          7.44375         7.08561        -0.21600
C         -6.27864         9.14783         0.08812
C         -5.14491         9.86649         0.06434
C         -3.81155         9.29031        -0.38439
C         -2.57263        10.05139         0.19161
C         -1.25396         9.31638        -0.01711
C         -0.06102         9.86531        -0.33120
C          1.20996         9.00552        -0.38085
C          2.48267         9.79142        -0.42237
C          3.70490         9.43006         0.37237
C          4.97433         9.87828        -0.31774
C          6.14219         9.22651        -0.28440
C        -11.19180        -0.89453        -0.66095
C         -9.97545        -1.68279        -0.57790
C         -8.69217        -0.93140        -0.59924
C         -7.38057        -1.69692        -0.34709
C         -6.43755        -0.88579         0.57622
C         -5.09860        -1.58853         0.77031
C         -3.82277        -0.85524         0.54112
C         -2.57008        -1.60238         0.21898
C         -1.28596        -0.84097         0.21008
C         -0.03955        -1.65417         0.26430
C          1.26779        -0.93040         0.20558
C          2.51369        -1.62140         0.67413
C          3.77829        -0.90038         0.32608
C          5.08293        -1.64747         0.56825
C          6.26190        -0.81917         0.08696
C          7.50414        -1.48193        -0.36359
C          8.74819        -0.84610         0.27590
C         10.00223        -1.57412        -0.14532
C         11.19111        -0.78344        -0.36891
C         -9.97787        -3.05142        -0.45170
C         -8.77382        -3.82499        -0.14087
C         -7.57565        -3.11873         0.11383
C         -6.37448        -3.84552         0.57230
C         -5.13147        -3.08793         0.89723
C         -3.81003        -3.80646         0.90610
C         -2.60121        -3.08477         0.37941
C         -1.33991        -3.83302         0.69038
C         -0.05945        -3.07788         0.77545
C          1.22640        -3.86933         0.65245
C          2.53088        -3.11187         0.73498
C          3.83955        -3.89374         0.51341
C          4.98725        -3.02640        -0.06119
C          6.19085        -3.65856        -0.69613
C          7.55337        -2.95452        -0.77567
C          8.65634        -3.70556         0.00924
C          9.95873        -2.93902        -0.22189
C         -8.80202        -5.22235         0.01148
C         -7.65874        -5.94745         0.69616
C         -6.29087        -5.34223         0.27836
C         -5.10927        -6.08279         1.00197
C         -3.77488        -5.31940         0.89219
C         -2.57321        -5.94466         0.26101
C         -1.39542        -5.25583         0.23748
C         -0.17194        -5.78286        -0.41549
C          1.15638        -5.23208         0.03571
C          2.36934        -5.76303        -0.68272
C          3.67328        -5.08050        -0.42788
C          4.95368        -5.85428        -0.51674
C          6.20297        -5.15235        -1.05036
C          7.44568        -5.93116        -0.65731
C          8.77062        -5.18615        -0.44423
C         -7.64138        -7.47730         0.54311
C         -6.34072        -8.24934         0.49062
C         -5.06278        -7.49152         0.43624
C         -3.94066        -8.04926        -0.10888
C         -2.81918        -7.15361        -0.61471
C         -1.53485        -7.97508        -1.13210
C         -0.19060        -7.22558        -0.93123
C          1.05786        -7.95876        -0.79455
C          2.32977        -7.23969        -1.00964
C          3.60114        -8.02216        -0.85783
C          4.90745        -7.32021        -0.65204
C          6.14884        -8.03990        -1.17172
C          7.39002        -7.28432        -0.68666
C         -6.31459        -9.62792        -0.03861
C         -5.14920       -10.21320        -0.39552
C         -3.89524        -9.47940        -0.39844
C         -2.68542       -10.12267        -0.54492
C         -1.43755        -9.40111        -0.61074
C         -0.23189       -10.04935        -0.49992
C          1.06034        -9.37535        -0.57897
C          2.25268       -10.08634        -0.45568
C          3.56727        -9.39072        -0.21219
C          4.86608       -10.12791        -0.50979
C          6.02598        -9.51242        -0.80754
O         -4.33003        -1.04223         1.90056
O         -5.37524        -6.19786         2.40265
O          3.54060        10.24589         1.57704
H          2.73658         9.89493         2.03847
O         -1.07206         7.52334         1.68318
O         -0.11662        -6.04890        -1.81869
O          3.67104        -0.20110        -0.93538
O         -2.22892         7.36373        -1.83515
H         -2.50519         6.54154        -2.31192
O         -3.39932         0.89884        -1.19135
O          4.26054        -4.42063         1.77128
H          4.35900        -3.66084         2.39101
O         -6.68652        -1.88076        -1.60787
H         -7.31432        -2.25771        -2.25966
O         -6.12288         3.83415        -1.97344
O         -1.87043         2.79136         1.63755
O          5.12225        -6.72027         0.66088
O         -0.79678        -3.40262         1.98310
O         -3.39862        -6.53459        -1.79675
H         -2.87680        -6.96111        -2.55460
O         -5.17191         1.45196         2.00835
H         -6.08894         1.74571         2.23213
O          9.58126        -5.87486         0.50187
H          9.32355        -5.52567         1.38528
O          1.19180         8.19555        -1.59243
H          0.98568         8.77431        -2.35539
O          5.14024        -3.00461        -1.49977
O          2.95113        -4.85064        -1.66510
O         -2.72132        -2.50861        -0.94520
O         -6.02480        -3.51218         1.97683
O          1.26799        -5.07863         1.47413
O         -2.62536         4.88715        -1.48884
O         -4.84890         6.61445        -1.89227
O          8.32786        -3.70388         1.40712
H          8.43466        -2.75697         1.74227
O         -7.91139        -5.68000         2.09819
H         -7.33784        -4.93946         2.40289
O          6.11014        -5.22409        -2.50013
H          5.43653        -4.55950        -2.77729
O          2.52353        -2.28579         1.95762
O          8.55776        -1.05316         1.69075
O          3.06234        -7.78008        -2.17403
O          3.91486         5.15471        -1.10080
H          3.47111         4.37809        -1.53178
O         -3.80252         9.44587        -1.80975
H         -3.21369         8.74694        -2.19302
O          2.48118         6.30466         2.07728
O          4.52554         7.79764         2.05838
O          5.16837         2.09906        -0.91534
O         -7.41525         7.54273        -2.26042
H         -6.54624         7.23782        -2.61219
O         -8.52982        -0.05132        -1.77010
O          5.70289         5.23100         2.06789
O          6.98436         6.94917        -1.56868
H          7.60960         6.38191        -2.06472
O          0.73259        -1.59789        -0.97920
O         -7.91213         1.51108         1.60638
H         -7.96351         0.60760         2.01346
O          0.82942         0.91032        -1.29251
O          3.64649         3.48235         2.16656
H          4.34425         4.07122         2.55546
O          2.22807         1.27889         2.04572
H          2.75967         1.98596         2.49088
O          6.67522        -0.73759        -1.31115
O          1.15406         8.80599         2.00076
H          1.05835         8.18583         2.75680
O         -3.87451         7.68176         1.45942
H         -3.33101         8.40542         1.86327
O         -1.64558        -8.08991        -2.51247
O          2.75370         2.76709        -1.30707
H          2.05028         2.19557        -1.71259
O          5.23156        -1.86867         1.98319
H          5.55067        -1.02387         2.40056
O         -3.49068        -4.55334         2.09877
O          6.15052        -7.99915        -2.61383
H          6.18744        -7.04735        -2.88489
O         -0.03260         5.83982        -1.21909
H         -0.04954         4.94019        -1.63439
O         -5.98189         0.54834        -1.39395
H         -6.78164         0.27650        -1.90928
O          6.43152         0.45941         2.15011
H          7.30841        -0.04405         2.28367
O         -1.60059         5.23773         2.03228
H         -1.91196         4.39506         2.44192
O          3.57231        -9.13576         1.23274
H          4.27325        -8.47083         1.42516
O         -0.14836         3.18641        -1.57698
H         -0.87212         2.65967        -1.98094
O         -6.55868         7.09924         1.27257
H         -5.76942         7.35446         1.80990
O         -7.05846        -0.87998         1.87937
H         -6.33407        -0.88922         2.54738
O         -6.13529        -5.52735        -1.14051
H         -5.21270        -5.81295        -1.36564
O         -2.76593        10.16647         1.61483
H         -1.91834        10.43739         2.02515
O         -7.15604        -8.14192         1.72900
H         -6.08840        -6.87386         2.53130
O          7.95814        -2.98144        -2.15765
H          7.31260        -2.42487        -2.64810
O          7.02690         8.34442         1.75499
H          6.29660         8.58792         2.37045
H         12.14200        -1.31127        -0.54304
H         12.12358         1.13583        -0.51828
H         10.92443         3.32000        -0.24289
H          9.63977         5.48208        -0.30419
H          8.43738         7.61325        -0.20548
H          7.00741         9.66316        -0.80764
H          4.90627        10.82765        -0.87253
H          2.46753        10.79777        -0.87191
H          0.02392        10.94111        -0.55733
H         -2.52181        11.07861        -0.26530
H         -5.19073        10.95160         0.24778
H         -7.22451         9.64588         0.35518
H         -8.48207         7.49084        -0.49884
H         -9.67222         5.38792        -0.79367
H        -10.94725         3.24026        -0.59692
H        -12.21005         0.97925        -0.64851
H        -12.13864        -1.44913        -0.74534
H        -10.93740        -3.59038        -0.47070
H         -9.75761        -5.75393        -0.12244
H         -8.54754        -7.95327         0.10286
H         -7.25689       -10.19404        -0.04602
H         -5.13265       -11.26472        -0.71800
H         -2.66199       -11.22279        -0.59484
H         -0.22160       -11.12972        -0.28830
H          2.21006       -11.18256        -0.35765
H          4.86976       -11.21390        -0.32254
H          6.93265       -10.12758        -0.92564
H          8.29990        -7.86024        -0.45402
H          9.30516        -5.20115        -1.43312
H         10.86418        -3.50454        -0.49813
