         324
 CSIRO Nanostructure Databank - Neutral Graphene Oxide Data Set
C          1.48383         4.21888        -3.25128
C          0.30883         4.88939        -3.08447
C          1.36762         6.96161        -2.27985
C          0.24369         6.25200        -2.63513
C          1.32941         8.30581        -1.69001
C          0.14408         9.08232        -1.73427
C          1.25403        10.94144        -0.60468
C          0.11286        10.35969        -1.21302
C          1.22876        12.28041        -0.06507
C          0.06416        13.09154        -0.19039
C          1.10953        14.95524         0.97763
C          0.03228        14.39884         0.25689
C          1.10627        16.32853         1.38439
C         -0.12551        17.05220         1.40342
C          1.06422        19.16868         1.49841
C         -0.15154        18.41784         1.48663
C          1.06330        20.57506         1.28889
C         -0.15876        21.32095         1.10531
C          1.11146        23.17549         0.15303
C         -0.15869        22.57338         0.57317
C          1.23084        24.50358        -0.59772
C          0.12724        25.46877        -0.81105
C          1.25905        27.76495        -0.75711
C          0.14885        26.84147        -0.88245
C          1.14057        29.17145        -0.57204
C          4.02094         4.20022        -2.92440
C          2.76794         4.91236        -3.13257
C          3.86152         6.84287        -1.82851
C          2.68973         6.37616        -2.56404
C          3.68665         8.02286        -0.95599
C          2.47723         8.86548        -1.09690
C          3.63826        10.80080         0.01128
C          2.45656        10.17949        -0.52747
C          3.61942        12.10420         0.54562
C          2.37537        12.80482         0.58612
C          3.59761        14.81896         1.74326
C          2.25821        14.10382         1.25640
C          3.58615        16.30569         1.73156
C          2.32511        17.02892         1.63055
C          3.52327        19.21581         1.69370
C          2.30208        18.45826         1.62895
C          3.53886        20.59731         1.54253
C          2.30641        21.29529         1.24026
C          3.45289        23.54569         1.23414
C          2.32660        22.62616         0.79569
C          3.57567        24.74352         0.33436
C          2.60224        25.05618        -0.53438
C          3.68190        27.97016        -0.20214
C          2.59222        27.29599        -0.75382
C          3.60143        29.41385        -0.29051
C          2.28021        29.95624        -0.47273
C          6.42102         4.15198        -2.44022
C          5.17483         4.86365        -2.51390
C          6.30890         6.85827        -1.44957
C          5.08040         6.20787        -1.96106
C          6.22390         8.02487        -0.60067
C          4.91660         8.62749        -0.34538
C          6.21262        10.75427         0.31984
C          4.92435        10.10134        -0.13621
C          6.09601        12.07722         0.92888
C          4.86182        12.74703         1.01032
C          6.09244        14.76906         1.84341
C          4.83837        14.08510         1.51967
C          6.07648        16.31107         1.94952
C          4.78033        17.00124         1.76868
C          6.09258        19.19155         1.54020
C          4.79155        18.47505         1.85026
C          6.08695        20.62907         1.21239
C          4.83089        21.34871         1.53588
C          6.04603        23.51044         0.84493
C          4.81157        22.84072         1.34862
C          6.05521        24.90101         0.59810
C          4.75312        25.63037         0.57728
C          6.12832        27.71762         0.48741
C          4.78412        27.12572         0.36748
C          6.06578        29.75289        -0.29201
C          4.73954        30.22767        -0.54038
C          8.81679         3.99177        -1.89788
C          7.60319         4.70383        -1.94241
C          8.75314         6.60021        -0.65837
C          7.62809         6.12523        -1.51215
C          8.65018         7.75631         0.08346
C          7.32634         8.42569         0.33931
C          8.60037        10.50737         0.97943
C          7.43123         9.92795         0.54495
C          8.62473        11.94350         1.24850
C          7.32349        12.61440         1.62781
C          8.55918        14.82376         1.51582
C          7.38713        14.11659         1.57156
C          8.53083        16.27942         1.42421
C          7.32286        16.97230         1.54264
C          8.51696        19.09334         0.71147
C          7.24106        18.36140         1.08906
C          8.51807        20.57281         0.71702
C          7.25459        21.29682         0.86875
C          8.45396        23.44728         0.48977
C          7.24528        22.75598         0.72890
C          8.47112        24.85046         0.36286
C          7.27272        25.58864         0.35586
C          8.53450        27.81677         0.00663
C          7.31586        27.05473         0.26286
C          8.47297        29.10664        -0.69051
C          7.23178        29.79161        -1.03102
C         11.24099         3.87793        -1.49399
C         10.00771         4.57060        -1.38159
C         11.16257         6.38909        -0.14074
C          9.97627         5.84333        -0.72769
C         11.09783         7.59154         0.56795
C          9.79118         8.23760         0.94388
C         11.03546        10.41455         1.31862
C          9.86069         9.76563         1.03543
C         11.05232        11.87286         1.64502
C          9.80157        12.62229         1.38251
C         11.11301        14.80467         1.67557
C          9.85982        14.11448         1.16985
C         11.02105        16.28768         1.61296
C          9.76707        16.98984         1.19954
C         10.99173        19.12755         0.72583
C          9.78497        18.36301         0.89748
C         10.98968        20.50965         0.48538
C          9.72631        21.22516         0.51377
C         11.00602        23.40835         0.17084
C          9.70411        22.68329         0.26409
C         11.04807        24.88135         0.44644
C          9.73579        25.61564         0.44186
C         11.01946        27.65265         0.10116
C          9.74888        27.06802         0.13841
C         10.94471        29.42912        -1.00151
C          9.59943        29.64911        -1.37176
C         13.69212         3.77113        -1.21937
C         12.44059         4.43190        -1.01983
C         13.62630         6.22286         0.16525
C         12.42273         5.69042        -0.32699
C         13.60566         7.45422         0.97461
C         12.29906         8.15991         1.18095
C         13.57594        10.37565         1.50405
C         12.28976         9.64025         1.51223
C         13.57712        11.75453         1.82629
C         12.33257        12.60936         1.99294
C         13.54058        14.98318         1.93472
C         12.31381        14.15538         1.90092
C         13.56842        16.34906         1.53964
C         12.29624        17.08222         1.49965
C         13.55285        19.10999         0.58983
C         12.26744        18.38712         0.77694
C         13.53288        20.56569         0.32097
C         12.25423        21.24835         0.29404
C         13.48806        23.39019        -0.09873
C         12.26307        22.63550         0.21546
C         13.57211        24.84117         0.32584
C         12.29222        25.59103         0.09231
C         13.43758        27.68127        -0.58345
C         12.26816        26.96580        -0.12201
C         13.36421        28.88648        -1.34325
C         12.12617        29.52414        -1.73550
C         16.15782         3.72669        -1.14794
C         14.88799         4.33659        -0.80358
C         16.10462         6.26638         0.17312
C         14.87666         5.59806        -0.10183
C         16.13117         7.62041         0.55480
C         14.89304         8.24778         1.07035
C         16.00433        10.46365         1.09433
C         14.81229         9.71561         1.25630
C         16.04096        11.80030         1.52738
C         14.84889        12.27549         2.09579
C         16.02529        15.00647         1.77933
C         14.81685        14.45861         2.21466
C         16.01324        16.36648         1.43115
C         14.78539        17.05459         1.39588
C         16.03762        19.05212         0.50511
C         14.79049        18.57051         1.27671
C         16.02526        20.55588         0.30495
C         14.75457        21.22232         0.16736
C         16.06986        23.41338        -0.07320
C         14.80140        22.65468        -0.15479
C         16.01642        24.85690        -0.20850
C         14.82167        25.54941        -0.14521
C         16.00229        27.66052        -0.97493
C         14.75169        27.01663        -0.37358
C         15.80047        28.80100        -1.88660
C         14.53414        29.38445        -1.99508
C         18.61943         3.72648        -1.22821
C         17.35338         4.30073        -0.82358
C         18.61002         6.39182        -0.19232
C         17.40580         5.51448         0.07086
C         18.57455         7.78098         0.11734
C         17.32542         8.38411         0.45996
C         18.56213        10.64149         0.64901
C         17.23036         9.83826         0.54833
C         18.54519        12.00487         1.19044
C         17.22962        12.68939         1.28693
C         18.55820        14.90067         1.48902
C         17.24114        14.19133         1.46769
C         18.58350        16.30514         1.37731
C         17.31618        17.07209         1.44199
C         18.59689        19.20054         0.84376
C         17.30599        18.53032         1.16232
C         18.52591        20.57239         0.26553
C         17.20630        21.24611         0.10413
C         18.55071        23.31146        -0.34201
C         17.26116        22.68478        -0.07694
C         18.60879        24.79942        -0.37804
C         17.31054        25.58971        -0.35798
C         18.31396        27.38476        -1.80663
C         17.25785        26.88575        -1.07682
C         18.11698        28.52894        -2.69225
C         16.87052        29.19602        -2.71229
C         19.78735         4.40766        -1.07191
C         21.00582         6.54293        -0.60870
C         19.80358         5.78230        -0.60035
C         21.00997         7.85950        -0.20071
C         19.80387         8.52949         0.15709
C         20.98579        10.58025         1.00549
C         19.81392         9.88799         0.60920
C         20.96462        11.92402         1.32740
C         19.74727        12.68734         1.37183
C         20.98409        14.86674         1.34538
C         19.76566        14.15062         1.45931
C         21.00662        16.23224         1.13799
C         19.80894        17.00164         1.10226
C         20.98471        19.09908         0.29511
C         19.82109        18.38677         0.72561
C         20.94300        20.35729        -0.24860
C         19.65122        21.04734        -0.62342
C         20.87688        23.22430        -1.12731
C         19.68325        22.57120        -0.64842
C         20.95996        24.56963        -1.29275
C         19.83516        25.44951        -0.96023
C         20.66320        27.22224        -2.71120
C         19.67232        26.79999        -1.71827
C         20.38312        28.23058        -3.59921
C         19.14225        28.90888        -3.57505
O          6.10738        15.46995         3.13952
O         17.01930        13.58178         0.11991
O         14.91491        13.32037         3.00078
O          4.01413         7.80868         0.47822
O         12.13443         8.62296         2.57318
O         20.20358        26.70391        -0.34669
O         11.47618        12.11327         3.06286
O          1.18028        23.26193        -1.36797
O          2.67818        14.16346         2.65352
O         13.01694        18.29366        -0.50443
O         17.77463        10.53666        -0.60517
O          6.16430        29.02457         0.92539
O          4.48337        26.52977         1.71292
O         17.24586        18.09606         2.55027
O         18.14955        25.47212         0.83715
O         14.39291         7.43333         2.19859
O         15.64703        27.85713         0.43802
O         18.85587        20.42024         1.67492
O         11.11589        29.01602         0.34589
O          2.91167         6.10228        -3.97286
O          2.86316        26.10016        -1.42010
O          4.99973        22.27637         2.68840
O         10.26852        23.06581        -1.06471
O          7.60214        18.54693        -0.31606
O          7.32109         7.06111        -2.58547
O         10.44185        25.28990         1.72022
O          5.68928        18.94406         2.92361
O         11.59181        17.01569         2.77094
O          5.81216        10.74366        -1.12213
O         14.05915        23.04940        -1.38901
O         13.68556        24.75596         1.78679
H         13.73879        25.66763         2.14615
O          3.06562        24.00149         2.55370
H          3.54305        23.43051         3.20173
O          9.99116        14.25720        -0.29545
H          9.16756        13.92283        -0.71111
O          7.17083        12.26714         3.04777
H          6.51658        12.88325         3.44312
O         17.63189         4.96995         1.42887
H         17.47199         5.69663         2.06831
O         19.30549        20.61347        -1.97725
H         20.03893        20.86939        -2.57461
O          9.50130         7.80692         2.33200
H         10.29724         8.06517         2.86383
O         16.02143        18.43427        -0.80588
H         15.13260        18.56378        -1.20464
O         14.77966        19.15036         2.59355
H         15.60266        18.85279         3.05340
O          6.86839         7.91499         1.64930
H          7.67474         7.84257         2.22294
H          1.48523         3.13605        -3.44488
H         -0.64130         4.35148        -3.21396
H         -0.75482         6.68049        -2.47036
H         -0.76243         8.67174        -2.19844
H         -0.82765        10.92177        -1.27416
H         -0.81935        12.70246        -0.71083
H         -0.85816        15.00705         0.04926
H         -1.07369        16.50070         1.35315
H         -1.11962        18.93471         1.48797
H         -1.11957        20.85455         1.36242
H         -1.10238        23.09768         0.36730
H         -0.86126        24.99702        -0.93138
H         -0.83672        27.32311        -0.99912
H          0.14849        29.64545        -0.59502
H          4.05288         3.11557        -3.10641
H          2.17577        31.05086        -0.47509
H          6.43446         3.10773        -2.78735
H          4.58281        31.19640        -1.03877
H          8.85805         2.97494        -2.31626
H          7.26243        30.44428        -1.91654
H         11.26094         2.90148        -2.00014
H          9.40061        30.32102        -2.22087
H         13.70322         2.81389        -1.76166
H         12.12498        30.08579        -2.68185
H         16.13894         2.79792        -1.73939
H         14.41669        30.24482        -2.67109
H         18.61561         2.72931        -1.69357
H         16.72337        30.02765        -3.41755
H         20.73990         3.95632        -1.38593
H         21.94183         6.06211        -0.92741
H         21.95653         8.41713        -0.19805
H         21.94890        10.05109         1.01696
H         21.91650        12.41317         1.57182
H         21.93978        14.32617         1.35057
H         21.97580        16.72700         0.98948
H         21.96986        18.61959         0.39989
H         21.89444        20.81941        -0.55073
H         21.75177        22.60698        -1.37516
H         21.90275        25.02424        -1.62597
H         21.66449        26.77187        -2.69000
H         21.15008        28.54858        -4.31943
H         18.97128        29.74888        -4.26265
