         429
 CSIRO Nanostructure Databank - Neutral Graphene Oxide Data Set
C          1.47603         1.81492        -0.97664
C          1.40601         3.26110        -0.95295
C          2.62752         1.13445        -0.76422
C          2.54245         4.02976        -0.90878
C          1.34677         6.23719        -0.99088
C          1.29550         7.60007        -1.03261
C          2.57510         5.48393        -1.03870
C          2.47688         8.40139        -1.34794
C          1.32148        10.62147        -1.13870
C          1.33680        12.01465        -1.16371
C          2.50919         9.87678        -1.17306
C          2.54512        12.73606        -1.22624
C          1.41365        14.96779        -1.32530
C          1.45543        16.37524        -1.47639
C          2.55379        14.18100        -1.37260
C          2.66587        17.07217        -1.59940
C          2.72204        18.51042        -1.63967
C          3.86423         1.88540        -0.34385
C          3.83967         3.30054        -0.88847
C          5.17714         1.20598        -0.62247
C          5.11524         4.06953        -0.79791
C          3.79576         6.18097        -1.03916
C          3.82116         7.63109        -1.28704
C          5.05216         5.54193        -0.74866
C          5.02924         8.40032        -0.95444
C          3.75809        10.56154        -1.14940
C          3.77579        11.99384        -1.16925
C          4.99579         9.82401        -1.00571
C          5.03449        12.68066        -1.13600
C          3.86213        14.83074        -1.77687
C          3.89592        16.34073        -1.62131
C          5.04726        14.19726        -1.06160
C          5.11424        17.01162        -1.62940
C          3.91729        19.17162        -1.69288
C          5.16721        18.45437        -1.68975
C          6.37839         1.91552        -0.54854
C          6.36715         3.36694        -0.44506
C          7.63801         1.25742        -0.50251
C          7.51531         4.08778        -0.18607
C          6.19755         6.26614        -0.46806
C          6.20579         7.70662        -0.58378
C          7.37981         5.56098         0.17060
C          7.42532         8.43023        -0.39247
C          6.21352        10.53729        -0.82391
C          6.21125        11.97088        -0.95127
C          7.41871         9.82853        -0.54193
C          7.51448        12.66739        -1.11233
C          6.33723        14.87997        -1.48897
C          6.36692        16.26841        -1.61315
C          7.58503        14.12183        -1.45236
C          7.60600        16.97867        -1.72262
C          6.39389        19.11016        -1.75344
C          7.63990        18.39633        -1.75969
C          8.83313         1.97554        -0.28974
C          8.78694         3.41047        -0.10015
C         10.08018         1.31258        -0.21297
C          9.98726         4.11580         0.11528
C          8.66833         6.32761         0.03770
C          8.65704         7.68869        -0.10585
C          9.91755         5.57864         0.35667
C          9.94504         8.42595        -0.15430
C          8.64445        10.60584        -0.23776
C          8.71583        12.08545        -0.46891
C          9.95099         9.91508        -0.28324
C         10.01660        12.78202        -0.56590
C          8.86790        14.82419        -1.30565
C          8.86982        16.22585        -1.73263
C         10.05068        14.15704        -0.93972
C         10.18071        16.98360        -1.63760
C          8.87908        19.10058        -1.70426
C         10.12600        18.45975        -1.55326
C         11.28931         2.01517        -0.00656
C         11.24942         3.45570         0.13886
C         12.52500         1.33176         0.05055
C         12.49179         4.16146         0.26591
C         11.20630         6.32058         0.47029
C         11.20443         7.78114         0.25893
C         12.50281         5.61768         0.35316
C         12.34633         8.49997         0.40225
C         11.14974        10.70478         0.05349
C         11.19518        12.09352        -0.14219
C         12.31788         9.97258         0.51871
C         12.45684        12.81304        -0.02561
C         11.30866        14.88439        -0.82259
C         11.35430        16.27447        -1.09130
C         12.48161        14.21471        -0.35880
C         12.53888        17.01350        -0.89527
C         11.33919        19.14076        -1.36501
C         12.56552        18.44455        -1.13262
C         13.76319         2.02392         0.16239
C         13.72257         3.47497         0.24099
C         14.99162         1.35894         0.15702
C         14.96129         4.18803         0.37377
C         13.65563         6.34617         0.35092
C         13.67702         7.84202         0.17626
C         15.00120         5.69017         0.26051
C         14.87680         8.55651         0.76706
C         13.61205        10.72661         0.71089
C         13.64433        12.15680         0.35354
C         14.88243         9.97050         0.76507
C         14.89036        12.84821         0.47843
C         13.70210        14.93362        -0.22946
C         13.72823        16.33471        -0.50103
C         14.90000        14.27420         0.22354
C         14.96085        17.04224        -0.46606
C         13.79838        19.11361        -1.10889
C         15.01890        18.42658        -0.84499
C         16.29905         2.08565         0.08728
C         16.18012         3.54012         0.44827
C         17.42906         1.39700         0.80201
C         17.38000         4.27896         0.78101
C         15.99336         6.32875         1.23807
C         16.05679         7.84284         1.04084
C         17.32749         5.60965         1.10855
C         17.24858         8.56802         1.26314
C         16.08362        10.69884         0.90912
C         16.09043        12.16267         0.83150
C         17.27279         9.96656         1.12825
C         17.28460        12.88029         1.17570
C         16.08548        14.99968         0.37032
C         16.15164        16.35427        -0.09779
C         17.23833        14.42849         1.17371
C         17.39422        16.99604        -0.32395
C         16.27575        19.06552        -0.94650
C         17.47930        18.34794        -0.74956
C         18.60403         2.06304         1.07008
C         18.70731         3.54518         0.74045
C         19.80891         1.37367         1.41204
C         19.75475         4.22682         1.60282
C         18.50261         6.33585         1.61959
C         18.46176         7.83449         1.70485
C         19.82023         5.69532         1.64116
C         19.75786         8.51790         1.81420
C         18.58401        10.70134         1.13574
C         18.44272        12.15338         1.54626
C         19.65777         9.98095         1.93595
C         19.63762        12.72995         2.06193
C         18.55630        15.03262         0.69230
C         18.60871        16.17621        -0.24503
C         19.70588        14.73605         1.36949
C         19.94647        16.83584        -0.46009
C         18.77268        18.97809        -0.86384
C         19.97109        18.30677        -0.63713
C         21.02985         2.03658         1.65224
C         20.99626         3.48496         1.96282
C         22.26323         1.39187         1.72626
C         22.24521         4.26060         2.13254
C         20.97899         6.38508         1.98202
C         20.94184         7.84207         2.05561
C         22.23247         5.67446         2.17743
C         22.18375         8.56769         2.34067
C         20.92178        10.71605         2.25590
C         20.92795        12.16999         2.02753
C         22.16485         9.97672         2.40491
C         22.15180        12.92423         1.93742
C         21.05191        14.99054         0.93493
C         21.18215        16.13508         0.03503
C         22.18604        14.29294         1.41085
C         22.46939        16.94071         0.19882
C         21.20659        19.00520        -0.45624
C         22.39074        18.40692        -0.01240
C         23.47014         2.11523         1.97549
C         23.46240         3.54978         2.18882
C         24.68521         1.42999         1.91688
C         24.68927         4.25983         2.43593
C         23.45543         6.40319         2.45216
C         23.39301         7.83784         2.53862
C         24.67646         5.68356         2.63262
C         24.55613         8.56383         3.17942
C         23.35308        10.82408         2.63865
C         23.37482        12.24460         2.17667
C         24.62651        10.09637         2.95788
C         24.64070        12.92554         2.17354
C         23.45617        14.99161         1.38322
C         23.50569        16.34322         1.02657
C         24.66964        14.33931         1.86568
C         24.64016        17.20833         1.49900
C         23.55506        19.15389         0.28195
C         24.70178        18.56127         0.83691
C         25.92492         2.11376         2.05652
C         25.89651         3.50889         2.40448
C         27.12790         1.39969         1.86896
C         27.19359         4.21715         2.41891
C         25.93913         6.37461         3.19084
C         25.89023         7.89307         2.96275
C         27.26437         5.67904         2.67190
C         26.98626         8.70237         3.11541
C         25.89573        10.79650         2.62178
C         25.85505        12.19632         2.38274
C         27.11028        10.08597         2.69340
C         27.15368        12.88677         2.49184
C         25.88202        15.06149         1.82907
C         25.94290        16.44925         1.45576
C         27.13687        14.40796         2.23168
C         27.14922        17.11988         1.22964
C         25.91688        19.24824         0.90496
C         27.16401        18.58819         1.08448
C         28.45550         2.09907         1.83047
C         28.17169         3.55114         1.50093
C         29.32929         1.46333         0.79800
C         29.15445         4.35465         0.71758
C         28.41264         6.38061         1.99597
C         28.75389         7.66826         2.42680
C         29.27316         5.78316         1.05242
C         29.63376         8.53369         1.75360
C         28.39023        10.69098         2.32136
C         28.41796        12.12790         2.26095
C         29.58012         9.98048         1.92915
C         29.61810        12.82091         2.01516
C         28.38497        15.04877         1.84096
C         28.36652        16.32185         1.28409
C         29.64844        14.30963         2.04723
C         29.60200        16.85728         0.78920
C         28.30999        19.42093         1.15804
C         29.61087        18.98801         0.77453
C         30.24085         2.19789         0.00316
C         30.27034         3.65349         0.07244
C         31.27636         1.52435        -0.67801
C         31.35454         4.40689        -0.37909
C         30.45409         6.47952         0.64604
C         30.60075         7.88219         0.94339
C         31.47835         5.78694        -0.05563
C         31.75407         8.60826         0.51651
C         30.74538        10.69789         1.50899
C         30.81366        12.12189         1.65530
C         31.84132        10.01114         0.86981
C         32.04178        12.81004         1.33979
C         30.93804        15.02805         1.71231
C         30.85466        16.38663         1.12946
C         32.12178        14.25131         1.30933
C         32.04286        17.13677         0.83704
C         30.89241        19.39288         1.10282
C         32.06614        18.58251         0.81311
C         32.29316         2.23866        -1.44093
C         32.35197         3.77400        -1.26633
C         33.52128         1.58114        -1.90271
C         33.62587         4.45736        -1.54774
C         32.83995         6.42517        -0.13930
C         32.81676         7.93187        -0.11878
C         33.77751         5.83362        -1.16549
C         33.99402         8.61354        -0.50614
C         33.01897        10.70658         0.56007
C         33.15679        12.07566         0.87185
C         34.04993        10.11481        -0.37525
C         34.41866        12.75365         0.57665
C         33.23076        14.93958         0.82479
C         33.26118        16.39620         0.71675
C         34.46506        14.21471         0.60308
C         34.45944        17.06300         0.43290
C         33.31627        19.21610         0.71318
C         34.51687        18.49073         0.48747
C         34.61513         2.30960        -2.32578
C         34.65936         3.75029        -2.15430
C         35.75527         1.65340        -2.95504
C         35.87784         4.46456        -2.57851
C         34.90762         6.56429        -1.52247
C         35.05431         7.92983        -1.11550
C         35.98933         5.94196        -2.31471
C         36.30887         8.63717        -1.46937
C         35.47031        10.56670         0.00801
C         35.51273        12.06505         0.13118
C         36.51262        10.02449        -0.96068
C         36.77342        12.78841        -0.29246
C         35.65539        14.87559         0.43042
C         35.66862        16.29753        -0.02812
C         36.93961        14.08919         0.52063
C         36.98385        16.99922         0.16815
C         35.76915        19.14012         0.36407
C         36.99749        18.42146         0.24262
C         36.94035         2.29524        -3.20037
C         37.16041         3.66492        -2.59902
C         38.03984         1.67211        -3.89892
C         38.33087         4.44118        -3.15359
C         37.34488         6.55755        -2.28034
C         37.49690         7.84296        -1.86100
C         38.47507         5.80491        -2.82928
C         38.87998         8.41287        -1.66253
C         37.88396        10.59091        -0.91847
C         38.03572        11.89370        -0.16150
C         38.94470         9.92511        -1.46830
C         39.22566        12.71576        -0.63567
C         38.18512        14.84537         0.13558
C         38.19477        16.25059         0.06890
C         39.46436        14.04582         0.08725
C         39.44635        16.96273        -0.07571
C         38.23952        19.09772         0.18998
C         39.44983        18.38841        -0.00882
C         39.18448         2.35586        -4.18545
C         39.35794         3.75364        -3.83781
C         40.52767         4.45894        -4.19609
C         39.69221         6.48771        -3.12212
C         39.89242         7.85141        -2.63784
C         40.69631         5.78821        -3.82844
C         41.04835         8.56564        -2.83773
C         40.23187        10.57810        -1.67088
C         40.35389        12.02995        -1.35326
C         41.22934         9.89485        -2.32825
C         41.63856        12.73555        -1.35849
C         40.62349        14.81538        -0.49729
C         40.65416        16.24814        -0.35918
C         41.70823        14.07526        -1.03251
C         41.84228        16.99564        -0.55160
C         40.67971        19.08703        -0.16691
C         41.85017        18.38943        -0.43522
O          7.71748        13.03684        -2.51136
O         27.85326         3.87806         0.12649
O         19.86895        10.40700         3.30496
O         36.07643         9.82276        -2.35838
O          4.60706         3.52727        -2.09895
O         19.30692        16.05269        -1.53255
O         10.10900         9.08246        -1.48765
O         22.21223        16.09010        -0.98119
O         18.18591         7.01481         2.90926
O         39.27123        12.83062        -2.07853
O         28.16567         8.11652         3.60112
O         12.75715        10.42443         1.87419
O         23.88263        10.76453         4.03806
O          3.19062         8.00056        -2.55717
O         27.75312         4.70512         3.68330
O         27.17732        13.84962         3.59257
O          9.72004        16.46264        -2.92668
O         10.45100         5.94996         1.69637
O          8.47024        11.53576         0.88161
O         29.53648        17.89242        -0.13284
O         19.56683        14.03047         2.57392
O         19.93041         3.72268         2.96687
O         30.51585        14.87975         3.10781
O         35.64922         5.42201        -3.65186
O         31.73432         3.18101        -2.44279
O         35.78621        10.00899         1.30857
H         36.65537        10.39814         1.58332
O         29.12895         2.05741         3.13193
H         28.65628         2.66732         3.74080
O         16.71897         2.11230        -1.36826
H         16.71034         1.18166        -1.68163
O         36.59453        13.15888        -1.67755
H         37.42531        12.97254        -2.17803
O         16.99081        14.86420         2.53992
H         17.76388        14.56811         3.07568
O         19.09113        10.68869        -0.24010
H         18.41476        11.10386        -0.81648
O         37.46672         3.44080        -1.18163
H         38.28963         2.91029        -1.13360
O          3.78898         2.03774         1.12088
H          3.74624         1.14045         1.51324
O         25.88346         6.13569         4.60611
H         26.63950         6.59987         5.02207
O         13.87267         8.05184        -1.27655
H         14.62520         7.45939        -1.53661
O         15.55415         5.96540        -1.08059
H         15.27935         5.23660        -1.67720
O         24.38587        17.50049         2.92038
H         24.48006        16.65866         3.41625
O         24.30777         8.36096         4.60445
H         23.81882         9.16027         4.92009
O          7.08139         5.57775         1.61421
H          7.92048         5.40119         2.09315
O         33.46480         6.04353         1.16067
H         33.04595         6.58902         1.86126
O         39.30819         7.89735        -0.34512
H         40.22006         8.22216        -0.18559
O          4.03386        14.55529        -3.19667
H          3.28570        14.96574        -3.67798
O         39.84925        13.67336         1.47325
H         40.04068        14.50612         1.95479
O         37.07392        13.70972         1.93369
H         37.07832        14.53570         2.46129
O         38.21595        11.48001         1.21095
H         38.43152        12.28946         1.74144
O         15.52803         6.10228         2.58605
H         16.24374         6.41436         3.18894
O         33.69100        10.68549        -1.65988
H         34.40040        10.43392        -2.30440
O         35.54657        16.18775        -1.50920
H         35.90966        15.30721        -1.76842
O          4.89318        14.51465         0.35705
H          5.57492        14.02358         0.86201
O         19.17658         3.62476        -0.63643
H         18.48450         3.18495        -1.18819
H          0.54856         1.26607        -1.19821
H          0.41260         3.72197        -1.04444
H          2.64682         0.03430        -0.79278
H          0.41360         5.69067        -0.79404
H          0.34995         8.10866        -0.79569
H          0.35177        10.10477        -1.14183
H          0.37624        12.54688        -1.18384
H          0.43436        14.50998        -1.12252
H          0.51360        16.94070        -1.42843
H          1.77692        19.07322        -1.62985
H          5.20691         0.10552        -0.66847
H          3.94112        20.27054        -1.73491
H          7.67735         0.16180        -0.59559
H          6.41685        20.20994        -1.78734
H         10.11098         0.21902        -0.33130
H          8.84954        20.20081        -1.69059
H         12.53161         0.23491        -0.03687
H         11.35372        20.24050        -1.40364
H         15.00521         0.26089         0.06990
H         13.83081        20.19083        -1.33087
H         17.36046         0.31226         0.98251
H         16.31912        20.12527        -1.23862
H         19.80173         0.27254         1.39222
H         18.79973        20.06370        -1.04373
H         22.32960         0.30943         1.54106
H         21.19618        20.09929        -0.57891
H         24.68909         0.35160         1.70061
H         23.58833        20.21857         0.00346
H         27.07072         0.33296         1.60379
H         25.93724        20.31175         0.62009
H         29.39624         0.36476         0.78694
H         28.14894        20.48189         1.40582
H         31.37286         0.43424        -0.56250
H         31.04449        20.34122         1.63876
H         33.55066         0.48125        -1.92950
H         33.36636        20.31313         0.77602
H         35.62506         0.61023        -3.28359
H         35.80625        20.23891         0.40865
H         37.92608         0.62676        -4.22360
H         38.26047        20.19624         0.24003
H         40.00053         1.85625        -4.72797
H         41.32475         3.93763        -4.74550
H         41.63696         6.29294        -4.08845
H         41.86530         8.14824        -3.44350
H         42.18218        10.39535        -2.55028
H         42.54088        12.21820        -1.71216
H         42.66151        14.59250        -1.21976
H         42.78818        16.48115        -0.76871
H         40.68985        20.18381        -0.09243
H         42.79468        18.93575        -0.56735
