         410
 CSIRO Nanostructure Databank - Neutral Graphene Oxide Data Set
C         27.89244        27.50814         1.69104
C         27.92752        28.95595         1.75580
C         26.70936        29.70690         1.51582
C         27.93161        31.85187         1.45902
C         26.70340        31.05086         1.32099
C         28.02913        33.22238         0.86945
C         26.85187        34.05439         0.86172
C         28.05010        35.90584        -0.19198
C         26.86580        35.33157         0.36387
C         28.08582        37.19801        -0.74493
C         26.86560        37.93185        -1.00794
C         28.14120        39.83450        -1.90208
C         26.87885        39.13365        -1.63234
C         28.13979        41.35277        -2.13388
C         26.86789        42.09201        -2.21375
C         28.06514        44.20267        -2.00005
C         26.84687        43.44365        -2.16466
C         28.04635        45.60620        -2.09513
C         30.35349        27.32613         1.85241
C         29.01787        26.75008         1.62518
C         30.40404        28.87902         1.95261
C         29.14586        29.61268         1.78349
C         30.48098        31.65470         1.15717
C         29.21814        31.07307         1.62951
C         30.47876        32.86611         0.26377
C         29.22968        33.71891         0.41864
C         30.56737        35.63666        -0.65295
C         29.25186        35.03936        -0.24351
C         30.59542        37.09177        -0.99386
C         29.33634        37.83830        -1.07767
C         30.58992        39.97081        -1.27527
C         29.38512        39.19627        -1.42435
C         30.53296        41.42373        -1.37084
C         29.35236        42.09580        -1.73536
C         30.47253        44.29478        -1.50146
C         29.29171        43.52774        -1.73766
C         30.44083        45.71615        -1.65188
C         29.21377        46.34470        -1.95802
C         32.69981        24.72040         0.44349
C         31.55541        25.35632         0.88397
C         32.84019        27.35887         1.46185
C         31.59393        26.66958         1.39844
C         32.87847        28.80768         1.67030
C         31.67627        29.54886         1.67371
C         32.92037        31.62521         1.15080
C         31.67274        30.93539         1.30815
C         32.93878        33.02690         0.76675
C         31.78769        33.64001         0.32615
C         33.02739        35.83371         0.10376
C         31.91824        34.93948        -0.44306
C         33.01963        37.22658        -0.12221
C         31.87864        37.88457        -0.79612
C         32.92421        40.10637        -0.43678
C         31.77028        39.35080        -0.81414
C         32.89156        41.54315        -0.60441
C         31.70109        42.19448        -1.02848
C         32.83869        44.39781        -0.82457
C         31.67643        43.62235        -1.12813
C         32.79893        45.81378        -0.94821
C         31.65378        46.48039        -1.44436
C         32.89365        48.60801        -1.50710
C         31.73105        47.87807        -1.70713
C         35.18347        23.36834        -0.32607
C         35.16171        24.72123         0.04498
C         33.96352        25.36512         0.50864
C         35.34026        27.28828         1.28051
C         34.01925        26.68151         1.05099
C         35.38933        28.82018         1.70136
C         34.10867        29.53007         1.63362
C         35.34185        31.71003         1.61407
C         34.10277        30.93345         1.43541
C         35.34878        33.14471         1.28417
C         34.20212        33.77135         0.85849
C         35.35455        35.98922         0.90366
C         34.18468        35.21343         0.62825
C         35.30357        37.39318         0.75971
C         34.12656        38.03194         0.26687
C         35.23538        40.28773         0.42325
C         34.06172        39.46102         0.08801
C         35.30424        41.65183        -0.10654
C         34.08054        42.30243        -0.42721
C         35.30030        44.41900        -0.42828
C         34.07095        43.72432        -0.53254
C         35.31757        45.86951        -0.30495
C         33.95654        46.61846        -0.55211
C         35.26634        48.72394        -0.69031
C         34.04426        48.02210        -0.93333
C         35.28060        50.14615        -0.65599
C         37.60226        23.41547        -0.77676
C         36.33892        22.74491        -0.77853
C         37.65763        24.77671        -0.40023
C         36.37756        25.56203        -0.26033
C         37.74825        27.44383         0.67853
C         36.53160        26.76375         0.63509
C         37.80418        28.83444         1.08794
C         36.64387        29.51974         1.43462
C         37.89832        31.72803         1.33386
C         36.66400        30.97546         1.63168
C         37.89064        33.13494         1.30083
C         36.61371        33.89234         1.64538
C         37.82404        35.99614         1.12684
C         36.62009        35.32355         1.17397
C         37.82888        37.46624         1.21761
C         36.50587        38.17433         1.11732
C         37.80469        40.29779         0.48890
C         36.52848        39.64772         0.86147
C         37.77653        41.60203         0.01512
C         36.53408        42.31598        -0.17409
C         37.75500        44.45387        -0.58580
C         36.54037        43.73446        -0.42696
C         37.77942        45.87651        -0.64159
C         36.55936        46.60169        -0.51021
C         37.74563        48.75073        -0.49412
C         36.51707        48.02224        -0.54128
C         37.70310        50.16938        -0.35728
C         36.44405        50.83808        -0.42938
C         39.95239        20.59794        -1.63580
C         38.82488        21.29622        -1.34343
C         40.03138        23.44308        -1.12459
C         38.81735        22.72739        -1.12475
C         40.10712        24.77632        -0.63087
C         38.90135        25.44610        -0.26984
C         40.20311        27.45670         0.32700
C         38.96062        26.80215         0.20671
C         40.24127        28.81960         0.78623
C         39.07070        29.53892         1.04210
C         40.31396        31.70657         1.10777
C         39.10009        30.98782         1.18655
C         40.33504        33.12326         1.07932
C         39.10623        33.84503         1.14490
C         40.29328        36.01212         1.19438
C         39.10715        35.30524         1.14986
C         40.35611        37.52341         1.41924
C         39.08271        38.23193         1.00036
C         40.34037        40.36787         0.65317
C         39.05710        39.55479         0.65361
C         40.30719        41.49960        -0.36972
C         39.00177        42.21390        -0.57085
C         40.27262        44.46119        -1.05253
C         38.97575        43.68491        -0.90950
C         40.27123        45.92430        -0.78404
C         39.02708        46.60481        -0.68312
C         40.22256        48.74618        -0.49292
C         39.00699        48.03760        -0.53806
C         40.19010        50.21993        -0.40386
C         38.91105        50.90633        -0.16052
C         40.08150        52.91847         0.61510
C         38.92651        52.27234         0.19401
C         42.48683        20.57964        -1.88449
C         41.20762        21.28826        -1.93980
C         42.55050        23.42116        -1.36565
C         41.24768        22.80755        -1.64501
C         42.58788        24.75639        -0.85755
C         41.37715        25.44762        -0.50953
C         42.71123        27.41500         0.18161
C         41.43324        26.77570        -0.00682
C         42.79032        28.78032         0.66080
C         41.54493        29.44627         1.04917
C         42.84471        31.68554         0.99941
C         41.57885        30.98191         1.22444
C         42.83239        33.13408         1.03901
C         41.60086        33.81472         1.12203
C         42.87242        36.03584         1.22611
C         41.56192        35.26998         1.34363
C         42.84326        37.47263         0.88748
C         41.61556        38.18158         0.86584
C         42.83196        40.23597         0.28330
C         41.60744        39.54405         0.53739
C         42.85241        41.61639        -0.12044
C         41.59974        42.22906        -0.61495
C         42.80359        44.49528        -0.74178
C         41.57473        43.71598        -0.95255
C         42.75364        45.87649        -0.73290
C         41.50061        46.61471        -0.67967
C         42.67730        48.75698        -0.22241
C         41.48983        48.05905        -0.49064
C         42.80954        50.26657        -0.10129
C         41.47139        50.98761        -0.10109
C         42.36733        52.67096         1.48638
C         41.33346        52.24832         0.65408
C         43.65972        21.26221        -1.82132
C         45.00316        23.35161        -1.46850
C         43.72803        22.69077        -1.59881
C         45.05919        24.69494        -1.01471
C         43.84607        25.39321        -0.67532
C         45.20495        27.28801         0.18904
C         43.89095        26.70559        -0.12894
C         45.26737        28.74265         0.67418
C         43.99376        29.49405         0.77923
C         45.31022        31.64529         1.04508
C         44.01579        30.92947         0.92431
C         45.33560        33.12845         0.90928
C         44.08768        33.85730         0.98179
C         45.32003        36.00476         0.88801
C         44.10460        35.26987         0.96587
C         45.32163        37.41396         0.75272
C         44.07296        38.13766         0.65945
C         45.30651        40.25986         0.29275
C         44.06956        39.53975         0.39980
C         45.29165        41.66982         0.03038
C         44.06287        42.32264        -0.23872
C         45.31281        44.51831        -0.43173
C         44.10398        43.71741        -0.86568
C         45.29495        45.89288        -0.51357
C         44.03058        46.62703        -0.76122
C         45.14556        48.66893         0.32694
C         43.97917        48.10272        -0.42652
C         45.02622        49.95223         1.11446
C         43.75554        50.71322         0.99767
C         43.54517        51.89098         1.66623
C         47.43080        23.32695        -1.72006
C         46.21424        22.69268        -1.82095
C         47.52210        24.66985        -1.26683
C         46.32877        25.35539        -0.91769
C         47.61467        27.40685        -0.46693
C         46.40833        26.69422        -0.42037
C         47.65288        28.80484        -0.06554
C         46.53309        29.45292         0.44108
C         47.81762        31.62862         0.47282
C         46.60587        30.87085         0.82125
C         47.84418        33.06316         0.87384
C         46.55547        33.79572         0.92622
C         47.90909        36.05120         0.83454
C         46.57648        35.26160         1.06870
C         47.80533        37.47257         0.49891
C         46.55417        38.14863         0.61056
C         47.82400        40.30139         0.57437
C         46.52614        39.55820         0.42928
C         47.77347        41.72963         0.12705
C         46.54901        42.39916        -0.03332
C         47.77065        44.53505        -0.07999
C         46.54775        43.81609        -0.20663
C         47.78834        45.95810        -0.10849
C         46.55082        46.64977        -0.41935
C         47.67214        48.75332         0.64147
C         46.50541        48.17363        -0.00641
C         47.50001        50.01459         1.31103
C         46.28824        50.62182         1.47279
C         50.02049        24.66325        -1.32660
C         48.79229        25.34894        -1.16744
C         50.05518        27.46627        -0.98162
C         48.82094        26.74604        -0.89267
C         49.96611        28.91781        -0.90853
C         48.84891        29.56130        -0.35665
C         50.02745        31.80768        -0.67260
C         48.88160        30.99228        -0.11555
C         50.25866        33.14028        -0.04481
C         49.14019        33.84331         0.60866
C         50.20368        35.94866        -0.12005
C         49.10405        35.29877         0.43631
C         50.14674        37.39344        -0.39394
C         48.96749        38.16469         0.03568
C         50.25045        40.27855        -0.15926
C         49.01626        39.55845         0.02222
C         50.25664        41.70614        -0.04300
C         49.00892        42.41972         0.03153
C         50.23821        44.56126         0.07333
C         49.00873        43.83630         0.00225
C         50.21964        45.98094         0.24339
C         48.97026        46.68718         0.17370
C         50.15442        48.73421         0.84970
C         48.92075        48.08628         0.52039
C         51.22396        25.32951        -1.17866
C         52.59823        27.34897        -0.77985
C         51.28084        26.73324        -1.03152
C         52.85325        28.63869        -1.24379
C         51.05754        29.73760        -1.36205
C         52.58984        31.68012        -1.00566
C         51.29116        31.03314        -0.94759
C         52.60933        33.06855        -0.78397
C         51.42700        33.81594        -0.38192
C         52.65760        35.99339        -0.45387
C         51.43931        35.26253        -0.34523
C         52.72219        37.38995        -0.41902
C         51.47422        38.14986        -0.56410
C         52.72109        40.28893        -0.31047
C         51.47956        39.59739        -0.32509
C         52.70522        41.70471        -0.26958
C         51.48191        42.41817        -0.12207
C         52.68109        44.60206         0.09269
C         51.47235        43.86283         0.00575
C         52.67745        45.96792         0.45760
C         51.43009        46.67456         0.51625
C         51.35475        48.07255         0.81233
C         54.79470        27.44623         0.25932
C         53.63083        26.74510        -0.01080
C         54.94286        28.82279        -0.08492
C         53.88189        29.48465        -0.77282
C         55.07811        31.59392        -0.69802
C         53.85292        30.92232        -0.93253
C         55.17972        33.04749        -0.92552
C         53.87168        33.81024        -0.89342
C         55.20807        35.90159        -0.14162
C         53.90319        35.20398        -0.35108
C         55.19743        37.39014        -0.14663
C         53.96964        38.10507        -0.27077
C         55.21521        40.22193        -0.15998
C         53.97690        39.53874        -0.28170
C         55.27539        41.70186        -0.30768
C         53.96352        42.45587        -0.45057
C         55.24897        44.63309         0.20292
C         53.95411        43.93778        -0.22371
C         55.10628        45.92578         0.88528
C         53.91613        46.58096         0.89465
C         56.10667        29.57292         0.23418
C         56.18319        30.90053        -0.13142
C         56.43340        33.80579        -0.65814
C         56.44974        35.12898        -0.41820
C         56.39656        38.09903        -0.02011
C         56.40475        39.49134        -0.02202
C         56.43483        42.45163         0.23002
C         56.41885        43.77697         0.47698
O         40.93737        50.97419        -1.45699
O         36.01402        31.39372         2.89762
O         48.78901        33.33858         1.95652
O         35.67709        40.31744         1.84480
O         51.98656        29.14246        -2.22257
O         28.29718        40.40462        -3.24709
O         37.08344        37.88264         2.42822
O         50.65154        37.74990        -1.71712
O         41.61458        30.07065         2.36832
O         39.55200        41.28903        -1.58402
O         54.55789        33.55907        -2.16331
O         47.40069        35.74544         2.17209
O         41.11095        22.28358        -3.00524
O         28.58101        31.79988         2.77250
O         54.47840        35.29998         1.00455
O         39.49558        44.05903        -2.22445
O         35.50333        27.73881         2.65559
O         54.75779        42.09580        -1.62264
O         44.15925        47.65355        -1.80160
O         29.76692        34.92022        -1.65652
O         44.87137        48.61739         1.76810
O         54.77813        44.65951        -1.18247
O         41.73381        42.69638        -1.99997
O         30.46524        28.01305         3.12962
O         46.69760        47.75258        -1.36605
O         42.30360        35.71376         2.55686
O         46.10646        31.16157         2.17690
O         31.52808        37.30286        -2.11427
O         45.37240        27.62182         1.61007
O         34.47418        46.35432         0.78478
O         48.05972        40.37568         2.04196
H         48.02194        39.45730         2.38748
O         44.31061        43.48522        -2.29316
H         43.47424        43.08175        -2.63389
O         40.44644        37.71546         2.86546
H         41.13065        37.07744         3.18990
O         49.52264        32.17199        -2.03726
H         50.28039        32.54763        -2.53727
O         32.36730        34.57568        -1.78604
H         32.21983        35.37156        -2.35117
O         36.10981        26.13383        -1.61147
H         36.05216        25.37587        -2.23263
O         36.60404        34.00743         3.10461
H         36.48778        33.09110         3.46091
O         43.50182        50.67260        -1.32520
H         42.81935        50.68045        -2.03673
O         30.40045        32.32378        -1.10620
H         30.41865        33.11114        -1.70884
O         40.40467        41.04097         1.94607
H         40.35198        40.34849         2.64176
H         26.91034        27.02922         1.56184
H         25.77361        29.13871         1.40610
H         25.77587        31.55136         1.00643
H         25.92330        33.65565         1.29225
H         25.94550        35.92873         0.41514
H         25.90024        37.45069        -0.80211
H         25.93221        39.60135        -1.93396
H         25.94346        41.53421        -2.41495
H         25.90093        43.99174        -2.28386
H         27.09461        46.11739        -2.29849
H         28.92615        25.67386         1.42072
H         29.16402        47.43701        -2.05732
H         32.61623        23.70558         0.03395
H         30.59802        24.82144         0.82618
H         32.90853        49.66790        -1.79713
H         30.86111        48.39592        -2.13223
H         34.27277        22.76014        -0.23524
H         34.33573        50.69839        -0.74907
H         36.27649        21.69128        -1.07692
H         36.40423        51.93250        -0.35803
H         39.94155        19.49794        -1.63646
H         37.90053        20.73291        -1.15844
H         40.00961        53.93087         1.03814
H         37.97821        52.82143         0.26878
H         42.48171        19.47960        -1.87956
H         42.24512        53.59442         2.06951
H         44.59534        20.68697        -1.81498
H         44.29011        52.24521         2.39365
H         48.33716        22.78476        -2.01985
H         46.18814        21.66525        -2.20607
H         48.39698        50.54081         1.66811
H         46.24511        51.63367         1.89960
H         50.03167        23.58028        -1.50606
H         50.14886        49.80674         1.08794
H         52.16387        24.76201        -1.22593
H         52.27461        48.63655         1.01680
H         55.61088        26.95376         0.80689
H         53.51204        25.71601         0.35655
H         55.98986        46.36916         1.36818
H         53.86942        47.57467         1.36133
H         56.94913        29.08555         0.74441
H         57.10482        31.45866         0.08341
H         57.38980        33.27924        -0.79703
H         57.41864        35.64301        -0.33833
H         57.34981        37.56424         0.08286
H         57.36837        40.01061         0.05818
H         57.33094        41.88168         0.51516
H         57.29429        44.24981         0.94858
