         618
 CSIRO Nanostructure Databank - Neutral Graphene Oxide Data Set
C         23.12010        69.83466        -1.08764
C         23.13753        71.19858        -1.46953
C         22.00227        71.82974        -2.04692
C         23.28569        73.85571        -2.39238
C         22.08400        73.15034        -2.48039
C         25.41589        65.64251        -0.23220
C         25.41325        67.06827        -0.10158
C         24.25026        67.76308        -0.46348
C         25.49818        69.87025        -0.35531
C         24.28047        69.16510        -0.61875
C         25.47655        71.32537        -0.60547
C         24.33892        71.94346        -1.30114
C         25.70277        73.94110        -1.85590
C         24.43850        73.26113        -1.81752
C         27.95712        61.44012        -0.77556
C         27.91528        62.85220        -0.66874
C         26.70839        63.55490        -0.69286
C         27.81890        65.65340        -0.01508
C         26.63979        64.93974        -0.34081
C         27.65389        66.85031         0.87529
C         26.59666        67.78993         0.29278
C         27.88854        70.01892         0.35344
C         26.65453        69.20867         0.16142
C         28.03737        71.26105        -0.46134
C         26.79944        72.05700        -0.69313
C         28.14272        73.98369        -1.49420
C         26.87522        73.34736        -1.40884
C         30.43591        57.19369        -0.77203
C         30.41667        58.55745        -0.52253
C         29.21098        59.32440        -0.68600
C         30.31736        61.46663        -0.03207
C         29.14632        60.71606        -0.55958
C         30.43146        62.92907        -0.22850
C         29.19117        63.60951        -0.63955
C         30.37953        65.87398         0.01029
C         29.12445        65.14858        -0.38956
C         30.20133        67.13399         0.77153
C         28.96456        67.47981         1.19261
C         30.33895        70.21217         1.06328
C         28.98655        69.66328         1.10510
C         30.39444        71.64481         0.55986
C         29.32224        72.03512        -0.42921
C         30.53281        74.13596        -1.06362
C         29.30907        73.44491        -0.94008
C         32.86562        52.79494        -0.33242
C         32.82719        54.22165        -0.37463
C         31.66550        54.95230        -0.51524
C         32.90651        57.11744        -0.32049
C         31.71311        56.41048        -0.92143
C         32.83487        58.55076        -0.06278
C         31.64875        59.24715        -0.13134
C         32.81868        61.49337         0.33455
C         31.59018        60.69092         0.23368
C         32.82211        62.88175         0.39438
C         31.60182        63.60831         0.09321
C         32.81058        65.72417         0.88370
C         31.66091        65.09115         0.18483
C         32.70343        67.10820         1.41616
C         31.38445        67.86218         1.34556
C         32.74111        69.92131         1.64286
C         31.41925        69.37182         1.38636
C         32.85935        72.09823         1.10126
C         31.59687        72.58560         0.55062
C         32.99417        74.08747        -0.84267
C         31.71656        73.63573        -0.48935
C         35.31533        48.53293        -0.63201
C         35.28105        49.88924        -0.29459
C         34.09806        50.66605        -0.45776
C         35.32684        52.75017         0.03436
C         34.07553        52.06406        -0.27386
C         35.33592        54.19438         0.09975
C         34.15503        54.94000        -0.51615
C         35.33183        57.08116         0.15766
C         34.04856        56.39726        -0.10456
C         35.37432        58.56555         0.27559
C         34.05582        59.25223         0.40650
C         35.32777        61.49172         0.60019
C         34.04678        60.73961         0.58006
C         35.26758        62.94451         0.87885
C         34.05752        63.61974         0.69529
C         35.28039        65.75589         1.18058
C         34.02465        65.04732         0.94299
C         35.30320        67.15557         1.33469
C         34.02460        67.83940         1.75905
C         35.25086        70.07579         1.25639
C         33.96044        69.32043         1.43457
C         35.30401        71.54107         0.86527
C         34.08091        72.35979         0.57646
C         35.44580        74.02207        -0.58956
C         34.18487        73.49284        -0.33317
C         37.97140        44.31442        -1.15727
C         37.87175        45.66516        -0.74407
C         36.66135        46.36216        -0.89950
C         37.73204        48.38446         0.25225
C         36.44428        47.67058        -0.30855
C         37.65976        49.84811         0.37172
C         36.48716        50.55776         0.19675
C         37.70416        52.68520         0.70096
C         36.46970        52.00782         0.34694
C         37.71199        54.14283         0.76641
C         36.47260        54.85583         0.52608
C         37.70219        57.07647         0.83603
C         36.39676        56.31784         0.90578
C         37.68056        58.53130         1.16716
C         36.55246        59.23378         0.89954
C         37.64967        61.36898         1.70466
C         36.56358        60.72182         0.88302
C         37.67939        62.88478         1.62386
C         36.47537        63.62223         1.22278
C         37.76967        65.74542         1.30756
C         36.51291        65.03572         1.24608
C         37.75648        67.17908         1.32853
C         36.52461        67.86923         1.41344
C         37.82056        70.08311         1.43181
C         36.50395        69.34839         1.80704
C         37.83340        71.56889         1.16074
C         36.54597        72.40659         1.09104
C         37.80344        74.21324        -0.17626
C         36.62779        73.53652         0.05077
C         40.53409        40.20323        -1.96184
C         40.48147        41.55017        -1.53782
C         39.25914        42.25366        -1.52012
C         40.40249        44.29166        -0.74085
C         39.19497        43.60969        -1.12689
C         40.34328        45.66824        -0.36369
C         39.08212        46.34318        -0.29615
C         40.24987        48.43332         0.20630
C         39.04046        47.71062         0.05565
C         40.17725        49.94742         0.30362
C         38.88877        50.45478         0.99625
C         40.14411        52.66372         1.05464
C         38.85250        51.96623         0.99168
C         40.18519        54.16556         1.00834
C         38.89146        54.84166         1.00695
C         40.19167        57.00350         1.55035
C         38.96532        56.31553         0.95855
C         40.21225        58.48521         1.13638
C         38.95534        59.20436         1.66567
C         40.26082        61.40619         1.46661
C         38.96403        60.69268         1.28122
C         40.28373        62.83508         1.42304
C         39.03037        63.60501         1.58433
C         40.25681        65.72132         1.17698
C         39.00467        65.04438         1.29356
C         40.26001        67.15540         1.07774
C         39.02730        67.88771         1.20848
C         40.21338        69.93692         0.50984
C         39.02565        69.28123         1.08517
C         40.26344        71.45090         0.31445
C         39.10927        72.27091         0.75588
C         40.34378        74.23440        -0.31802
C         39.10616        73.70232         0.24694
C         43.10923        36.17924        -3.20951
C         43.03535        37.48950        -2.67824
C         41.80637        38.17070        -2.51584
C         42.97189        40.14628        -1.59649
C         41.75641        39.49738        -2.03525
C         42.92924        41.51999        -1.13750
C         41.69585        42.22793        -1.14803
C         42.86454        44.30071        -0.46045
C         41.65122        43.60461        -0.77452
C         42.83371        45.69561        -0.13203
C         41.55577        46.37814        -0.09832
C         42.77688        48.53408         0.18702
C         41.49453        47.77686         0.12589
C         42.73411        49.96535         0.60892
C         41.40904        50.51079         1.00067
C         42.64189        52.67235         1.67254
C         41.36667        51.91775         1.46761
C         42.68492        54.15709         1.50484
C         41.44498        54.92195         1.25280
C         42.72621        57.04181         1.03692
C         41.46769        56.27868         1.20817
C         42.75844        58.51620         1.27318
C         41.49353        59.24083         1.44777
C         42.73513        61.31482         0.95014
C         41.47622        60.62475         1.41088
C         42.74270        62.81957         1.06928
C         41.49427        63.54702         1.21388
C         42.79145        65.69310         1.21506
C         41.46697        64.97454         1.17088
C         42.71756        67.12124         0.71915
C         41.50176        67.84029         0.81850
C         42.69254        69.91608         0.14892
C         41.50213        69.23424         0.50580
C         42.71264        71.35027        -0.05920
C         41.55149        72.12042         0.09541
C         42.78959        74.15546        -0.54292
C         41.54912        73.53493        -0.20827
C         45.67709        33.63138        -4.15513
C         44.44169        34.22295        -3.93709
C         45.56691        36.24851        -3.10264
C         44.35004        35.54445        -3.40865
C         45.50520        37.54158        -2.55991
C         44.25545        38.16348        -2.31318
C         45.39143        40.00859        -1.06058
C         44.18532        39.45241        -1.70007
C         45.36984        41.45563        -0.59725
C         44.11699        42.20941        -0.77224
C         45.34250        44.28875        -0.21260
C         44.10334        43.59731        -0.49350
C         45.30340        45.67625         0.14861
C         44.04361        46.37168         0.16861
C         45.20808        48.48813         0.70966
C         44.05953        47.80827         0.37181
C         45.25980        50.00565         0.69525
C         43.95556        50.65998         1.08762
C         45.14384        52.68631         2.03631
C         43.92301        51.94198         1.52974
C         45.13828        54.17243         1.73379
C         44.00157        54.83022         1.40102
C         45.29122        57.01607         1.32031
C         44.02911        56.27950         1.09420
C         45.26458        58.47054         0.90580
C         43.96193        59.16797         1.28222
C         45.23112        61.34696         1.07224
C         43.97536        60.66492         1.55193
C         45.20040        62.67289         0.63897
C         43.93414        63.45676         0.69775
C         44.76022        65.59488        -0.26585
C         43.86171        64.88796         0.52137
C         44.97728        66.98091        -0.21410
C         43.88002        67.76801         0.21871
C         45.09425        69.79853        -0.52814
C         43.90044        69.17808        -0.03941
C         45.09448        71.21273        -0.68613
C         43.94398        71.98141        -0.44072
C         45.20967        74.06243        -0.92762
C         43.97047        73.41870        -0.64677
C         46.86993        34.31446        -3.86526
C         48.05615        36.31564        -3.04441
C         46.84620        35.62175        -3.34384
C         48.05734        37.62123        -2.53880
C         46.75304        38.38585        -2.49265
C         47.97270        40.13260        -1.07508
C         46.71101        39.36191        -1.32317
C         47.86552        41.55951        -0.72673
C         46.65536        42.19033        -0.54153
C         47.79563        44.33947        -0.04472
C         46.58678        43.62547        -0.30218
C         47.74604        45.69165         0.40939
C         46.49915        46.34959         0.48866
C         47.74781        48.47605         1.03923
C         46.43950        47.71153         1.13103
C         47.76823        49.99077         1.00033
C         46.44426        50.55963         1.52789
C         47.64052        52.77453         1.83555
C         46.44656        52.05875         1.61899
C         47.66066        54.16900         1.95778
C         46.37312        54.92933         2.16614
C         47.71161        57.06863         1.80687
C         46.43169        56.37187         1.71186
C         47.69351        58.52267         1.63091
C         46.49115        59.21517         1.36437
C         47.69169        61.35390         1.35802
C         46.47377        60.63266         1.26585
C         47.68593        62.73561         0.96586
C         46.49721        63.28741         0.41274
C         47.66769        65.42774        -0.00620
C         46.62992        64.53085        -0.24362
C         47.51093        66.95020         0.00537
C         46.28745        67.52989        -0.75614
C         47.52830        69.65738        -1.07798
C         46.31241        69.05072        -0.74482
C         47.51073        71.04764        -1.60502
C         46.26105        71.85676        -1.32404
C         47.62945        73.94615        -1.26829
C         46.37212        73.33274        -1.20621
C         49.24346        38.31437        -2.23186
C         50.42084        40.31527        -1.40114
C         49.24864        39.61262        -1.64636
C         50.39923        41.63309        -0.81475
C         49.10317        42.40020        -0.94109
C         50.21445        44.30686         0.28935
C         49.05504        43.68291        -0.15548
C         50.17952        45.66467         0.71410
C         48.97125        46.36249         0.75344
C         50.20274        48.51248         1.18895
C         48.94270        47.79641         1.03031
C         50.18999        49.92551         1.50794
C         48.97908        50.60791         1.64763
C         50.17203        52.80184         2.02029
C         48.89935        52.00842         2.20617
C         50.19076        54.16961         2.07728
C         48.90358        54.89688         2.41153
C         50.17083        57.05903         2.04559
C         48.90169        56.37188         2.03080
C         50.13771        58.53698         2.11167
C         48.89443        59.25974         1.80356
C         50.15179        61.40415         1.57808
C         48.91859        60.67034         1.63737
C         50.09753        62.91860         1.61319
C         48.86743        63.51308         0.97558
C         50.07080        65.63540         0.45638
C         48.84916        64.86714         0.55960
C         50.06473        66.98541        -0.04844
C         48.81057        67.65559        -0.35941
C         50.06339        69.61898        -1.23360
C         48.77965        68.93951        -0.88461
C         50.07512        71.01624        -1.77130
C         48.78997        71.81417        -2.04569
C         50.03847        73.92056        -1.43629
C         48.84210        73.24244        -1.51673
C         51.51442        42.21360        -0.28991
C         52.68105        44.42041         0.07304
C         51.51166        43.53753         0.42512
C         52.68585        45.73944         0.46294
C         51.46880        46.31750         1.16196
C         52.64899        48.55368         1.16055
C         51.42524        47.83279         1.12724
C         52.65787        49.95234         1.46568
C         51.43721        50.60276         1.71363
C         52.72347        52.78528         2.11957
C         51.41974        52.01979         2.11049
C         52.65531        54.25590         2.01666
C         51.44584        54.92327         2.05099
C         52.65784        57.12034         1.86153
C         51.40159        56.39006         2.04067
C         52.66749        58.53011         1.66945
C         51.44602        59.30375         1.92915
C         52.59640        61.39181         1.21514
C         51.38680        60.73038         1.54961
C         52.58184        62.82628         1.03090
C         51.34380        63.58147         1.10107
C         52.53950        65.55370         0.25720
C         51.28256        64.90687         0.65919
C         52.56126        66.98578        -0.14786
C         51.27941        67.69731        -0.24095
C         52.54649        69.74204        -0.77796
C         51.33345        69.04776        -0.70137
C         52.68904        71.04962        -1.54110
C         51.37413        71.79247        -1.81888
C         52.58397        74.05112        -1.51996
C         51.33430        73.29902        -1.73050
C         53.85181        46.54473         0.36217
C         55.08241        48.62765         0.75923
C         53.88156        47.88773         0.79157
C         55.12162        50.00674         1.06577
C         53.90570        50.69852         1.44111
C         55.14856        52.83216         1.50250
C         53.94246        52.07564         1.68188
C         55.16197        54.23310         1.63571
C         53.96524        54.97783         2.19053
C         55.08604        57.09913         1.44805
C         53.89198        56.42283         1.77032
C         55.05162        58.48649         1.16592
C         53.84853        59.21348         1.28211
C         55.00878        61.32484         0.68862
C         53.83915        60.66411         1.06049
C         55.01478        62.78501         0.34727
C         53.78203        63.48206         0.81248
C         55.03662        65.70620         0.77642
C         53.77407        64.94697         0.80486
C         55.02315        67.12001         0.33270
C         53.81795        67.74919        -0.03777
C         55.02038        69.84763        -0.28303
C         53.79596        69.12814        -0.34883
C         54.99322        71.31417        -0.41045
C         53.72979        71.96376        -0.89643
C         55.02828        74.07616        -1.21976
C         53.78728        73.40334        -1.28230
C         56.32759        50.72651         0.97918
C         57.57858        52.83839         1.08441
C         56.36789        52.12549         1.17381
C         57.60225        54.24377         1.19686
C         56.36032        54.95729         1.40716
C         57.56782        57.08021         1.13895
C         56.35095        56.37809         1.34228
C         57.57837        58.48304         0.90706
C         56.27838        59.13913         0.66963
C         57.56746        61.36991         0.16081
C         56.24865        60.60338         0.35585
C         57.49250        62.82446         0.57603
C         56.31529        63.49756         0.67275
C         57.46908        65.67786         0.87995
C         56.31568        64.96274         0.77798
C         57.44698        67.15885         0.88003
C         56.22268        67.84079         0.40543
C         57.49369        69.94818         0.01935
C         56.24020        69.21784         0.06569
C         57.48533        71.33016        -0.36851
C         56.26462        72.03632        -0.53503
C         57.49500        74.06110        -1.14975
C         56.25809        73.40690        -0.94421
C         58.81697        54.96065         1.13824
C         60.03005        57.10959         1.14438
C         58.82809        56.37017         1.14921
C         60.02943        58.52206         1.09633
C         58.77440        59.22436         0.89815
C         59.96922        61.37156         0.94687
C         58.78679        60.65662         0.74783
C         60.01181        62.81739         0.87339
C         58.78737        63.60168         0.44834
C         60.00567        65.72117         0.89550
C         58.74642        64.94440         1.18942
C         60.01623        67.13328         0.69979
C         58.74852        67.90893         0.78961
C         59.95571        69.95331         0.02684
C         58.73571        69.30050         0.26984
C         59.95320        71.28163        -0.49166
C         58.72483        71.98992        -0.62090
C         59.94436        73.97545        -1.40510
C         58.72288        73.36675        -1.04102
C         61.22731        59.25325         1.19535
C         62.40634        61.38551         1.41383
C         61.22895        60.67450         1.19700
C         62.43363        62.87159         1.59584
C         61.16729        63.52458         1.10179
C         62.44198        65.61130         0.72509
C         61.20253        64.97237         0.90808
C         62.46603        67.06317         0.58521
C         61.21188        67.80976         0.50396
C         62.42478        69.79140        -0.48997
C         61.28343        69.32116         0.40638
C         62.36785        71.10912        -1.03708
C         61.16881        71.88827        -0.94404
C         62.32419        73.78951        -2.00451
C         61.15093        73.23488        -1.43783
C         63.64151        63.48715         0.94327
C         64.79325        65.44253        -0.04002
C         63.64994        64.82944         0.56588
C         64.81896        66.79017        -0.43296
C         63.73169        67.70235        -0.01177
C         64.68284        69.50630        -1.42808
C         63.58371        69.02014        -0.66807
C         64.65503        70.84163        -1.92125
C         63.50114        71.64764        -1.70901
C         64.62278        73.52411        -2.85139
C         63.48505        73.00740        -2.18892
C         65.85837        67.32599        -1.21436
C         66.92686        69.20666        -2.38500
C         65.84112        68.67496        -1.66849
C         66.92515        70.54603        -2.85462
C         65.78120        71.36993        -2.62074
C         66.90259        73.22725        -3.77325
C         65.76529        72.72426        -3.08417
C         68.03378        71.09110        -3.55310
C         68.01137        72.41379        -3.99894
O         38.48759        56.78423        -0.35244
O         40.40993        53.35608        -0.22619
O         29.25029        64.57378        -1.72445
O         39.21612        60.91749        -0.10954
O         54.28056        65.54500         2.06012
O         47.45840        39.10579        -0.11896
O         45.20373        40.34098         0.34617
O         31.37442        65.87601        -1.05002
O         56.07982        59.61425        -0.73695
O         46.48918        71.24750        -2.63935
O         52.15301        52.26193         3.37089
O         26.00000        72.13250         0.52589
O         42.58666        53.51253         2.87758
O         29.01760        71.11425        -1.54104
O         35.71122        57.91795        -0.98858
O         50.87576        59.06935         3.26533
O         36.30698        61.21506        -0.46790
O         30.65210        61.01536         1.32457
O         39.88747        70.57503        -0.80506
O         36.82608        47.68888         1.12549
O         30.52006        72.72101         1.53754
O         53.94273        71.84783         0.53376
O         32.73417        71.22242         2.16617
O         31.78999        67.18769         2.59010
O         46.69733        39.19874        -3.65803
O         42.81301        49.63283        -0.83800
O         28.83880        68.60171         2.02501
O         52.64682        65.87871        -1.16723
O         45.59435        64.86640        -1.11309
O         38.10523        71.05792         2.51338
O         58.06552        67.74951         2.08620
O         51.41016        72.56560        -3.04330
O         43.41135        56.62009        -0.20746
O         38.29305        63.37604         2.86707
O         50.16795        69.87915        -2.70152
O         33.91522        59.82972         1.75021
O         39.33564        73.34887         1.69508
O         63.50118        67.74292         1.42603
O         41.24166        50.81556         2.41247
O         35.48473        70.49067        -0.14675
O         40.14634        50.45212        -1.04580
H         41.01317        50.24088        -1.46481
O         47.98938        50.37579        -0.39550
H         47.12092        50.36006        -0.87046
O         54.20111        55.00054         3.64705
H         53.36253        55.26674         4.08153
O         40.23814        58.50874        -0.29924
H         39.87714        59.39636        -0.58500
O         50.00167        63.25616         3.05380
H         50.76908        62.84094         3.50285
O         31.98510        56.37528        -2.38900
H         32.07364        57.30515        -2.69108
O         45.32152        58.51054        -0.55428
H         44.56462        57.96100        -0.87802
O         46.25839        47.41910         2.56417
H         46.23661        48.29567         3.02840
O         39.00623        59.13611         3.11204
H         38.22668        59.64906         3.45526
O         43.91256        60.85395         2.99214
H         44.76055        60.55443         3.38166
O         57.83635        61.40002        -1.27724
H         57.34984        60.62998        -1.66237
O         37.30021        61.05866         3.08272
H         37.65273        61.79990         3.63349
O         62.52314        63.14162         3.05013
H         61.63360        62.99034         3.43488
O         48.72562        71.97132        -3.47312
H         48.92931        71.09694        -3.87139
O         34.14457        67.82347         3.20875
H         33.22942        67.81985         3.57841
O         34.44007        54.96571        -1.94628
H         33.66710        55.40527        -2.38129
O         38.90021        49.94047         2.35304
H         38.02200        50.10509         2.75451
O         48.77619        51.86172         3.66566
H         48.89290        52.76794         4.04478
O         48.87357        54.85521         3.88819
H         47.95755        55.14065         4.14719
O         58.92193        63.91179        -0.96283
H         58.65724        63.09999        -1.46101
O         54.94621        62.85640        -1.13119
H         54.14709        62.36484        -1.41856
O         46.44164        67.13849        -2.13766
H         45.73639        67.56555        -2.66634
O         53.25322        70.68844        -2.82904
H         52.52290        70.33556        -3.38292
O         36.00541        56.34392         2.31356
H         35.16415        55.85088         2.41469
O         36.41281        69.33968         3.24122
H         36.84961        70.15981         3.57036
O         43.17668        65.76826         2.64092
H         42.44951        66.22224         3.11759
O         51.66310        43.22131         1.84916
H         51.72061        44.08430         2.33320
O         36.38253        73.04520         2.37369
H         37.25981        73.40406         2.63606
O         46.21595        55.01653         3.64339
H         45.93026        54.11033         3.93654
O         40.13044        56.81706         2.98479
H         39.62021        57.56399         3.38841
O         49.06860        42.80908        -2.35497
H         48.21076        43.25582        -2.51792
O         45.41387        50.40456        -0.70440
H         44.57791        50.13246        -1.16460
O         58.73638        64.66815         2.61773
H         58.58223        65.52278         3.07746
O         27.12117        66.37518         2.15878
H         27.17549        67.13030         2.78437
O         61.59998        69.79734         1.75450
H         62.40884        69.30740         2.03864
O         42.79322        61.05242        -0.48528
H         41.89900        61.20609        -0.86007
O         45.06495        52.54965         3.51931
H         44.13999        52.82771         3.75210
O         47.26671        67.26603         1.40700
H         47.98178        66.86366         1.94447
O         51.63848        45.95585         2.58227
H         50.87644        46.32641         3.07747
O         46.27246        50.06762         2.89184
H         45.91221        50.80561         3.44261
H         23.35069        74.88175        -2.78132
H         25.74799        74.93432        -2.32635
H         28.19432        74.98264        -1.95277
H         30.57162        75.04586        -1.68052
H         33.08522        74.91483        -1.56172
H         35.54174        74.89124        -1.25754
H         37.80106        75.06107        -0.87877
H         40.33462        75.24053        -0.76164
H         42.80719        75.23727        -0.73904
H         45.25416        75.16155        -0.91025
H         47.69401        75.02767        -1.07261
H         50.03691        74.97276        -1.11302
H         52.55979        75.14420        -1.64352
H         55.06326        75.14061        -1.49562
H         57.49995        75.11069        -1.47852
H         59.94346        75.01740        -1.75802
H         62.30598        74.82555        -2.37354
H         64.60996        74.56463        -3.20851
H         66.89797        74.26686        -4.13075
H         22.19903        69.25019        -1.23045
H         21.06632        71.26365        -2.15241
H         21.20191        73.63402        -2.92275
H         24.47258        65.13422        -0.47885
H         23.33647        67.20677        -0.71824
H         27.02724        60.89609        -0.99888
H         25.76767        62.99906        -0.81916
H         29.50015        56.69731        -1.07293
H         28.30455        58.78823        -1.00606
H         31.91941        52.23963        -0.43173
H         30.68872        54.44378        -0.49351
H         34.47483        48.09874        -1.19421
H         33.16537        50.15114        -0.73372
H         37.06519        43.79385        -1.50064
H         35.84782        45.89786        -1.47679
H         39.60426        39.70332        -2.27214
H         38.33696        41.73930        -1.82876
H         42.18195        35.65592        -3.48682
H         40.87002        37.67035        -2.80522
H         45.72761        32.61192        -4.56291
H         43.51781        33.67378        -4.17018
H         47.83676        33.82371        -4.04932
H         49.01398        35.79519        -3.20875
H         50.21385        37.83512        -2.44479
H         51.39284        39.85714        -1.64434
H         52.45248        41.63647        -0.25124
H         53.58867        43.97521        -0.36379
H         54.77200        46.09391        -0.03963
H         56.01191        48.12359         0.45521
H         57.25511        50.19381         0.72193
H         58.51701        52.29318         0.90581
H         59.76688        54.41045         1.06938
H         60.99029        56.57582         1.20194
H         62.17757        58.71614         1.33248
H         63.33676        60.82724         1.60101
H         64.54067        62.87199         0.78832
H         65.65746        64.80640        -0.28256
H         66.70871        66.68407        -1.48739
H         67.80712        68.57424        -2.57407
H         68.91596        70.46159        -3.73774
H         68.88082        72.81894        -4.53561
