         630
 CSIRO Nanostructure Databank - Neutral Graphene Oxide Data Set
C         23.11684        27.25729         0.76291
C         23.12458        28.64141         0.99997
C         23.06184        31.59251         1.01553
C         23.04868        32.96990         1.05016
C         23.02892        35.89705         1.16495
C         23.01927        37.27537         1.18127
C         22.99192        40.19904         1.04694
C         22.98528        41.58108         1.16817
C         22.98226        44.51264         1.36722
C         22.96633        45.93042         1.34178
C         25.38509        24.60771        -0.55986
C         24.23508        25.23197        -0.13364
C         25.57524        27.20524         0.50585
C         24.26790        26.55796         0.38149
C         25.57380        28.74068         0.78592
C         24.28182        29.42242         0.88000
C         25.48443        31.59915         0.68210
C         24.27072        30.86673         0.84727
C         25.46757        33.03077         0.71128
C         24.24219        33.72636         0.90774
C         25.43577        35.90447         0.75147
C         24.22691        35.17098         0.94498
C         25.40953        37.32441         0.73450
C         24.20440        38.02274         0.94135
C         25.44246        40.20245         0.97123
C         24.19315        39.47729         0.95246
C         25.42845        41.63610         1.13222
C         24.19124        42.32775         1.21886
C         25.45655        44.52781         1.42983
C         24.15512        43.77244         1.29732
C         25.36337        45.90602         0.81316
C         24.11890        46.66395         1.05482
C         25.33219        48.76779         0.68922
C         24.14445        48.06910         0.87457
C         27.87674        23.25676        -1.42205
C         27.82834        24.61666        -1.12745
C         26.65019        25.28216        -0.60995
C         27.95819        27.38270        -0.25744
C         26.74708        26.61185        -0.15208
C         27.96129        28.79201         0.04773
C         26.77234        29.49420         0.40581
C         27.94466        31.64709         0.31040
C         26.72636        30.90313         0.44628
C         27.93172        33.07246         0.42767
C         26.69178        33.77974         0.57518
C         27.91624        35.94019         0.51007
C         26.68064        35.19531         0.59713
C         27.93001        37.35868         0.48487
C         26.63108        38.10177         0.30280
C         27.95349        40.18078         1.14721
C         26.64974        39.50995         0.82613
C         27.90957        41.66567         0.89914
C         26.68502        42.36344         1.02326
C         27.89930        44.49146         0.79378
C         26.68809        43.77697         0.99718
C         27.92109        45.93859         0.77423
C         26.65315        46.66922         0.61315
C         27.82370        48.85429         0.82483
C         26.60257        48.14010         0.68373
C         27.89510        50.26205         0.79285
C         30.33217        23.19190        -1.59981
C         29.08924        22.56526        -1.63495
C         30.36923        24.65424        -1.62688
C         29.03542        25.41984        -1.33935
C         30.36079        27.48987        -0.87007
C         29.12577        26.78375        -0.79665
C         30.35714        28.86410        -0.52978
C         29.16683        29.53146        -0.12868
C         30.39265        31.68976         0.13165
C         29.16309        30.95392         0.09079
C         30.37825        33.07736         0.35823
C         29.15887        33.79181         0.42560
C         30.35745        35.96494         0.29101
C         29.15218        35.23595         0.46402
C         30.38207        37.36881         0.23060
C         29.14379        38.08149         0.39676
C         30.34613        40.24651         0.37433
C         29.16148        39.51220         0.53409
C         30.36785        41.65305         0.53232
C         29.12382        42.37234         0.71213
C         30.38184        44.53249         0.31883
C         29.11562        43.78552         0.65503
C         30.37961        45.97562         0.77152
C         29.13178        46.64101         0.85308
C         30.40360        48.88050         0.91645
C         29.07760        48.10857         1.05252
C         30.34090        50.30116         0.55620
C         29.09985        50.95305         0.64703
C         32.82028        20.36811        -1.62603
C         31.61497        21.05864        -1.61634
C         32.83049        23.17377        -1.48533
C         31.59065        22.46586        -1.54780
C         32.82396        24.61413        -1.41910
C         31.63944        25.35315        -1.38945
C         32.83187        27.45970        -1.05752
C         31.62037        26.78850        -1.17707
C         32.87636        28.90937        -0.84765
C         31.59359        29.65367        -0.61855
C         32.86699        31.70681         0.01472
C         31.64000        31.01695        -0.06194
C         32.91638        33.09740         0.20499
C         31.66146        33.81802         0.60965
C         32.89719        35.95988        -0.04424
C         31.60103        35.21592         0.05750
C         32.85523        37.42092         0.08438
C         31.63424        38.08124         0.11202
C         32.87085        40.26554         0.36453
C         31.60739        39.57460        -0.11642
C         32.86377        41.61745         0.62820
C         31.62148        42.38185         0.59325
C         32.86539        44.52775         1.08315
C         31.62585        43.76358         0.68330
C         32.85498        45.98099         0.68196
C         31.61424        46.68688         0.73957
C         32.81631        48.81324         0.36470
C         31.63114        48.11732         0.65731
C         32.77927        50.23349         0.11158
C         31.54790        50.95308         0.13954
C         32.71320        52.97244        -0.58751
C         31.55249        52.32916        -0.23304
C         35.33106        18.86363        -1.00750
C         35.30301        20.23947        -1.54816
C         34.04940        21.04170        -1.57358
C         35.34323        23.18300        -1.45733
C         34.07984        22.46417        -1.51650
C         35.37990        24.56969        -1.37014
C         34.11569        25.31165        -1.52020
C         35.40302        27.47762        -0.98639
C         34.12293        26.81570        -1.34080
C         35.41974        28.82304        -0.61877
C         34.14236        29.50138        -0.32728
C         35.41672        31.68672        -0.03295
C         34.14130        30.95412         0.02313
C         35.40124        33.09095         0.05298
C         34.14931        33.80880         0.15466
C         35.37564        35.95621         0.13967
C         34.16443        35.22805         0.14832
C         35.35820        37.39116         0.15353
C         34.11998        38.12217         0.18122
C         35.36120        40.24151         0.35833
C         34.11248        39.51925         0.34941
C         35.35896        41.62190         0.47563
C         34.15007        42.32606         1.01591
C         35.31852        44.51665         0.52529
C         34.13465        43.80685         0.72344
C         35.32058        45.96639         0.48204
C         34.06873        46.67261         0.50720
C         35.27786        48.81001         0.17603
C         34.06713        48.10375         0.32316
C         35.23995        50.22339        -0.10401
C         33.99028        50.91326        -0.21093
C         35.18780        52.95634        -0.92584
C         33.96682        52.29631        -0.57132
C         35.21887        54.30890        -1.41793
C         37.79456        18.79586        -1.02418
C         36.49946        18.16807        -0.90842
C         37.77881        20.27188        -0.98788
C         36.61165        20.97229        -1.60342
C         37.88416        23.18038        -1.28102
C         36.64671        22.48667        -1.81807
C         37.85806        24.59695        -1.18757
C         36.61502        25.31439        -1.24737
C         37.85457        27.43138        -0.80824
C         36.62212        26.72828        -1.04759
C         37.86613        28.84066        -0.55104
C         36.63585        29.54436        -0.42159
C         37.87002        31.67705        -0.14122
C         36.63172        30.96187        -0.18051
C         37.86729        33.10259        -0.02716
C         36.63270        33.81956         0.04093
C         37.85597        35.95870         0.11565
C         36.62386        35.24178         0.10980
C         37.84742        37.38458         0.16185
C         36.60117        38.10220         0.16982
C         37.84309        40.23721         0.25428
C         36.60535        39.51834         0.20491
C         37.84849        41.65079         0.27995
C         36.56216        42.38008         0.01291
C         37.79210        44.52194         0.45479
C         36.57286        43.83070         0.38632
C         37.79285        45.97324         0.45869
C         36.54686        46.66813         0.38408
C         37.75536        48.80736         0.17916
C         36.54416        48.10720         0.24605
C         37.69089        50.31831         0.28907
C         36.44396        50.93747        -0.30359
C         37.65627        52.89199        -1.28639
C         36.41385        52.26928        -0.75990
C         37.66773        54.33058        -1.65509
C         36.38239        54.96044        -1.73909
C         40.25623        16.00666        -0.78759
C         39.07395        16.68028        -0.88715
C         40.28094        18.85284        -0.95962
C         39.02012        18.11974        -0.93467
C         40.30786        20.24396        -0.94112
C         39.07570        21.02384        -0.85326
C         40.32169        23.17812        -1.01115
C         39.09709        22.48488        -1.12011
C         40.30955        24.58233        -0.96482
C         39.08180        25.30418        -0.98870
C         40.32400        27.42320        -0.65282
C         39.08594        26.72244        -0.82504
C         40.33665        28.83018        -0.43990
C         39.10254        29.54500        -0.38902
C         40.34204        31.68015        -0.13620
C         39.10383        30.96417        -0.21467
C         40.34028        33.10415        -0.05033
C         39.10051        33.81935         0.00005
C         40.32923        35.96119         0.11976
C         39.09517        35.24361         0.07788
C         40.32285        37.38187         0.21152
C         39.08120        38.09651         0.22170
C         40.30982        40.24096         0.37524
C         39.08165        39.52014         0.29260
C         40.30596        41.66150         0.46485
C         39.05341        42.38138         0.42168
C         40.26856        44.53994         0.90959
C         39.02433        43.79973         0.50919
C         40.26885        45.99389         0.49531
C         39.02550        46.68488         0.40627
C         40.25226        48.80606         0.15120
C         39.01570        48.12245         0.25018
C         40.28959        50.26569        -0.04864
C         38.99612        51.01411        -0.10842
C         40.24291        52.87716        -1.35054
C         38.95177        52.17014        -1.06295
C         40.17488        54.31756        -1.74528
C         38.86929        55.02293        -1.85351
C         40.13464        57.05988        -2.47086
C         38.94364        56.40122        -2.25134
C         42.72109        16.01493        -0.51464
C         41.51130        16.70559        -0.74126
C         42.78074        18.79383        -0.87165
C         41.53434        18.11781        -0.90406
C         42.84855        20.22576        -1.21288
C         41.55535        20.98954        -1.19420
C         42.90028        23.16117        -1.17959
C         41.61763        22.43561        -0.74919
C         42.77169        24.61246        -1.21613
C         41.55775        25.29610        -0.93185
C         42.79438        27.41343        -0.63580
C         41.55524        26.70954        -0.76881
C         42.78843        28.80188        -0.31529
C         41.58358        29.52473        -0.26209
C         42.79485        31.69491        -0.08571
C         41.58384        30.97021        -0.13499
C         42.80920        33.11487        -0.07231
C         41.57290        33.82484        -0.02409
C         42.80251        35.96145         0.14487
C         41.57122        35.25140         0.07296
C         42.80055        37.38652         0.27569
C         41.55560        38.09795         0.29079
C         42.77945        40.23213         0.45597
C         41.54806        39.51825         0.37636
C         42.78582        41.65499         0.46933
C         41.53788        42.38309         0.50258
C         42.73957        44.52728         0.43922
C         41.53782        43.79720         0.57804
C         42.72311        45.92181         0.28871
C         41.49650        46.66622         0.32108
C         42.70859        48.81588        -0.04449
C         41.49476        48.10708         0.11539
C         42.76268        50.22351        -0.32780
C         41.53840        50.91151        -0.52130
C         42.73115        52.97833        -1.04555
C         41.52180        52.26382        -0.90478
C         42.71557        54.45148        -1.25813
C         41.40364        55.14708        -1.54057
C         42.62799        57.11064        -2.37434
C         41.40889        56.47995        -2.16762
C         43.90368        16.71092        -0.31754
C         45.13324        18.88956        -0.05683
C         43.95116        18.11943        -0.44651
C         45.20205        20.29142        -0.25274
C         44.19378        20.94305        -1.18176
C         45.42801        23.07571        -0.90448
C         44.10950        22.46402        -1.08517
C         45.71926        24.38095        -1.32820
C         43.87120        25.46075        -1.49753
C         45.34789        27.28830        -0.46087
C         44.00708        26.75199        -0.97680
C         45.34826        28.80059        -0.43209
C         44.08278        29.46783        -0.08216
C         45.33385        31.69830        -0.24776
C         44.07816        30.98349         0.03551
C         45.30677        33.14582        -0.19708
C         44.05481        33.83409        -0.05337
C         45.27785        35.96791         0.18174
C         44.04495        35.24978         0.07917
C         45.27230        37.38277         0.38085
C         44.02635        38.09534         0.40046
C         45.21937        40.24983         0.72925
C         44.01701        39.52484         0.50447
C         45.22417        41.65815         0.73198
C         44.01613        42.35002         0.51442
C         45.27539        44.54134         0.51618
C         44.02453        43.79676         0.11879
C         45.27588        45.93199         0.24641
C         43.98601        46.58866        -0.20961
C         45.25953        48.80573        -0.11845
C         43.97739        48.07544         0.07324
C         45.26986        50.25546        -0.44108
C         43.99534        50.94460        -0.48882
C         45.20403        53.12056        -0.84597
C         43.95691        52.32649        -0.80768
C         45.21749        54.46021        -1.47663
C         43.95797        55.15244        -1.65277
C         43.86217        56.45534        -2.13336
C         47.33419        18.94042         0.99183
C         46.20256        18.24679         0.61770
C         47.44157        20.33827         0.76962
C         46.32903        21.02038         0.18103
C         47.60474        23.17303         0.23310
C         46.45498        22.43721        -0.14354
C         47.74094        24.55219        -0.07357
C         46.74058        25.19177        -0.83068
C         47.85179        27.41997        -0.46839
C         46.66224        26.69518        -1.07136
C         47.80935        28.81410        -0.38652
C         46.53094        29.51998        -0.42882
C         47.78728        31.67730        -0.56803
C         46.50874        30.97136        -0.38789
C         47.79009        33.19058        -0.42953
C         46.51235        33.87414        -0.16812
C         47.75581        35.98259         0.26091
C         46.51801        35.27291         0.10141
C         47.73963        37.38728         0.51317
C         46.49809        38.06651         0.58730
C         47.78766        40.26289         0.98244
C         46.46376        39.49132         0.95279
C         47.76465        41.71697         0.84797
C         46.46801        42.42205         1.17613
C         47.71907        44.58312         0.74022
C         46.47604        43.87598         0.76764
C         47.72136        45.99069         0.44005
C         46.48071        46.63355         0.17887
C         47.71130        48.82248        -0.21781
C         46.46928        47.97850        -0.51199
C         47.71967        50.10114        -1.06597
C         46.46122        50.88763        -0.72737
C         47.76337        52.99766        -1.28520
C         46.53175        52.34942        -0.79258
C         47.67735        54.30938        -1.71783
C         46.44458        55.00739        -1.82847
C         49.89332        20.34708         1.08156
C         48.66550        21.03949         1.02093
C         49.95689        23.23270         1.21201
C         48.59254        22.54185         1.19665
C         50.07895        24.62247         0.73072
C         48.96095        25.29678         0.22561
C         50.20124        27.42524         0.30986
C         49.00978        26.70158        -0.03997
C         50.24603        28.85156         0.13164
C         49.03060        29.56382        -0.16679
C         50.32064        31.71812        -0.46015
C         49.03594        30.95039        -0.30429
C         50.24822        33.15862         0.01619
C         49.04637        33.87022        -0.03917
C         50.22394        35.97698         0.41249
C         48.99959        35.27115         0.23192
C         50.21811        37.40410         0.49915
C         48.98938        38.12116         0.58346
C         50.23893        40.26625         0.54711
C         49.02382        39.53344         0.67741
C         50.24434        41.72136         0.62960
C         48.96682        42.42218         0.73207
C         50.20778        44.56788         0.94780
C         48.94497        43.85428         0.80264
C         50.21332        46.09816         0.66450
C         48.95303        46.71935         0.25996
C         50.21912        48.74360        -0.38337
C         48.99511        48.03613        -0.22035
C         50.21744        50.15092        -0.71758
C         49.00752        50.87577        -0.89652
C         50.27007        52.91934        -1.29328
C         49.01447        52.25511        -1.18243
C         51.12074        20.96845         1.18181
C         52.48705        23.13713         0.79376
C         51.23609        22.41999         1.31131
C         52.50631        24.58450         1.23954
C         51.33045        25.31452         0.92993
C         52.46666        27.51912         1.36479
C         51.33076        26.73377         0.78634
C         52.63851        28.88862         0.76429
C         51.47117        29.56538         0.28343
C         52.70271        31.68977         0.30558
C         51.52216        30.97504         0.06060
C         52.67884        33.09312         0.46000
C         51.46260        33.83092         0.35134
C         52.67098        35.99449         0.56459
C         51.45363        35.26119         0.47674
C         52.68210        37.39021         0.48801
C         51.44806        38.12163         0.48190
C         52.73394        40.23482         0.28715
C         51.44832        39.53865         0.43822
C         52.74927        41.77146         0.42169
C         51.45087        42.44327         0.64443
C         52.68690        44.60221         0.73632
C         51.48667        43.86787         0.79062
C         52.69627        46.00646         0.46018
C         51.48116        46.71910         0.28346
C         52.70575        48.75395        -0.33965
C         51.46066        48.06168        -0.17644
C         52.69903        50.11459        -0.76134
C         51.46828        50.82864        -0.88590
C         51.45114        52.22553        -1.17186
C         54.96642        23.01645         1.08922
C         53.78472        22.39704         0.96985
C         55.10373        24.46623         1.39044
C         53.76170        25.28067         1.59091
C         54.86766        27.53704         1.78722
C         53.75863        26.75708         1.49988
C         55.04098        28.87294         1.30536
C         53.87904        29.52921         0.81811
C         55.11607        31.63518         1.15329
C         54.02072        30.94574         0.31996
C         55.20803        33.08812         0.80299
C         53.91598        33.78850         0.85675
C         55.21550        35.96930         0.58160
C         53.93270        35.28993         0.84323
C         55.18119        37.35901         0.44886
C         53.94694        38.09253         0.51508
C         55.21998        40.19032         0.81639
C         53.96680        39.48408         0.50559
C         55.20855        41.70894         1.02448
C         53.98509        42.44651         0.77989
C         55.24073        44.58925         0.57175
C         53.98658        43.91528         1.09995
C         55.20348        45.97918         0.28135
C         53.94798        46.70053         0.24149
C         55.20073        48.88658        -0.00940
C         53.93151        48.06820        -0.08723
C         55.13848        50.10540        -0.89295
C         53.95955        50.71327        -1.14813
C         57.18688        24.58577        -0.09058
C         56.33541        25.14402         0.90239
C         57.58529        27.28023         0.68689
C         56.65244        26.43667         1.33251
C         57.57238        28.72106         0.83551
C         56.36790        29.47880         1.13102
C         57.62520        31.59033         0.78771
C         56.41048        30.87795         0.99932
C         57.65420        33.02749         0.73777
C         56.40522        33.77301         0.73454
C         57.68111        35.87057         0.41539
C         56.43289        35.21543         0.54449
C         57.73784        37.30540         0.10418
C         56.40102        38.11203         0.12949
C         57.69998        40.22767         0.39501
C         56.47504        39.52526         0.47403
C         57.72004        41.66072         0.48918
C         56.54374        42.45472         1.06272
C         57.66844        44.52677         0.18588
C         56.44496        43.86900         0.51924
C         57.65777        45.93508        -0.05155
C         56.43269        46.66813        -0.00733
C         57.68532        48.73459        -0.37832
C         56.46149        48.07597        -0.18207
C         58.30477        25.27898        -0.52867
C         59.66399        27.38609        -0.59309
C         58.52968        26.63579        -0.16095
C         59.80150        28.70035        -0.21587
C         58.74530        29.41588         0.43683
C         60.04688        31.56684         0.46656
C         58.82482        30.85250         0.57457
C         60.08034        32.94471         0.54923
C         58.88530        33.71141         0.64760
C         60.10727        35.91784         0.65600
C         58.90788        35.16932         0.58358
C         60.13123        37.31214         0.58970
C         58.96981        38.06207         0.31923
C         60.13173        40.24058         0.05512
C         58.93631        39.49512         0.23072
C         60.11201        41.61481        -0.00382
C         58.91347        42.35541         0.23405
C         60.10605        44.52763        -0.08587
C         58.90596        43.80910         0.13867
C         60.10541        45.89308        -0.28479
C         58.88639        46.62538        -0.27912
C         58.87966        48.02909        -0.44420
O         38.20055        20.77508         0.32441
O         40.35542        53.27688        -2.76703
O         39.81926        51.17691         1.08041
O         50.20301        45.55827         2.02250
O         38.21511        51.92358        -2.28883
O         50.65165        23.02490         2.50303
O         29.80813        48.56512         2.22857
O         55.97151        26.95920         2.43373
O         25.88094        46.07292        -0.52351
O         34.08119        29.90392         1.08858
O         47.12601        39.78791         2.23794
O         25.83594        27.75623         1.83387
O         44.78346        48.49014         1.23527
O         54.57955        24.75998         2.70291
O         55.12467        40.77335         2.19128
O         44.05079        43.81373        -1.32618
O         57.03276        37.70215        -1.11831
O         52.81278        41.10110        -0.90705
O         53.82579        34.55980         2.13312
O         29.58452        25.28038        -2.68568
O         42.16202        20.61505        -2.46938
O         45.97483        53.02491         0.38893
O         44.14986        30.13353         1.24075
O         41.94618        55.12926        -0.18360
O         34.16385        26.21826        -2.68388
O         44.88728        24.94587        -2.30962
O         32.25620        29.63851        -1.96016
O         47.85291        32.55629        -1.77029
O         32.17970        35.43446        -1.25412
O         36.11719        20.30140        -2.80029
O         46.68860        26.97685        -2.48423
H         46.05559        26.35839        -2.91844
O         30.40706        44.62536        -1.16327
H         30.34016        43.71050        -1.51371
O         44.77499        20.72325        -2.50950
H         44.03982        20.83952        -3.15448
O         45.36570        26.86945         0.93581
H         44.74768        27.44174         1.43929
O         25.63778        44.77812         2.86916
H         25.63676        43.91028         3.32603
O         50.52775        31.81687        -1.92526
H         49.67925        32.17281        -2.29157
O         28.12849        40.02257         2.62160
H         28.94299        40.51116         2.86898
O         32.81651        44.54625         2.58613
H         33.47509        45.20944         2.88828
O         54.49214        30.92428        -1.05708
H         53.74325        30.65379        -1.62947
O         31.59083        39.74399        -1.57803
H         32.32646        39.20983        -1.94670
O         47.68611        49.83979        -2.49021
H         47.10680        49.05167        -2.64957
O         56.90004        42.63547         2.46656
H         56.43420        41.92216         2.96463
O         41.72542        22.33223         0.71095
H         41.64360        23.23432         1.08657
O         55.25604        49.39564         1.37674
H         54.43984        49.91969         1.52477
O         46.37482        47.66403        -1.92750
H         45.52545        47.14549        -2.05649
O         31.75534        34.00416         2.06867
H         31.78295        33.11531         2.48243
O         36.76967        22.69905        -3.25945
H         36.30296        21.94462        -3.69355
O         54.72624        31.56988         2.55520
H         54.35361        32.43816         2.82212
O         37.49324        50.55718         1.72100
H         38.39447        50.66794         2.11199
O         54.06604        44.01186         2.56755
H         54.13831        44.96220         2.79907
O         52.05788        27.77915         2.77479
H         52.04878        26.91375         3.23851
O         52.27091        23.14456        -0.66585
H         53.03525        23.59397        -1.08434
O         26.48511        38.24126        -1.16994
H         26.48784        37.33573        -1.54809
O         46.39506        42.42042         2.64647
H         46.56112        41.48738         2.93122
O         43.97505        46.43056        -1.66881
H         43.98046        45.41641        -1.79896
O         34.23559        42.20994         2.48749
H         33.59739        42.87547         2.85211
O         47.58865        49.29932         1.14832
H         47.33559        48.54692         1.72462
O         48.01490        22.74812         2.52740
H         48.76802        22.69962         3.16069
O         40.23115        44.57861         2.39985
H         41.03735        45.05294         2.69734
O         36.44394        42.38960        -1.48307
H         37.25652        42.81643        -1.83168
H         22.15253        26.72838         0.76350
H         22.15594        29.12765         1.17948
H         22.11257        31.05411         1.13507
H         22.08643        33.47885         1.19110
H         22.08397        35.36594         1.33765
H         22.06993        37.79186         1.37416
H         22.02720        39.67546         1.01834
H         22.01825        42.09730         1.22336
H         22.01015        44.00216         1.41752
H         22.00613        46.45396         1.45651
H         25.31584        23.57733        -0.93253
H         23.27277        24.70159        -0.17765
H         25.27968        49.86423         0.64026
H         23.20130        48.62953         0.95277
H         26.96194        22.65191        -1.35906
H         26.96592        50.84682         0.75670
H         29.02948        21.47146        -1.71716
H         29.04652        52.04200         0.51357
H         32.80425        19.27188        -1.69194
H         30.67964        20.48802        -1.67744
H         32.66523        54.03358        -0.86507
H         30.61116        52.89403        -0.23997
H         34.38217        18.36113        -0.77358
H         34.27360        54.85652        -1.53062
H         36.45258        17.10759        -0.62130
H         36.32079        56.00458        -2.07541
H         40.26378        14.90889        -0.72233
H         38.13483        16.11110        -0.91377
H         40.11232        58.09168        -2.85195
H         38.00916        56.94658        -2.44422
H         42.70706        14.91919        -0.42596
H         42.64591        58.12852        -2.79050
H         44.81222        16.14607        -0.07139
H         44.78056        57.00684        -2.37892
H         48.14837        18.40164         1.49510
H         46.15023        17.17202         0.83439
H         48.58155        54.83473        -2.05601
H         46.48139        56.02000        -2.25423
H         49.88621        19.25515         0.94981
H         50.30242        54.00077        -1.48317
H         52.03123        20.36387         1.06884
H         52.39821        52.77281        -1.26966
H         55.89245        22.41968         1.08792
H         53.77116        21.30960         0.80242
H         56.07119        50.57333        -1.23723
H         53.95072        51.65055        -1.72209
H         56.99551        23.57044        -0.46656
H         57.71272        49.82940        -0.46007
H         59.01017        24.79332        -1.21756
H         60.43677        26.89712        -1.20300
H         60.69835        29.25048        -0.53262
H         60.99265        31.02019         0.34941
H         61.05142        33.45393         0.48388
H         61.05815        35.39630         0.83062
H         61.09032        37.82736         0.74049
H         61.08163        39.71096        -0.10043
H         61.05171        42.14050        -0.21489
H         61.06932        44.00179        -0.09471
H         61.05157        46.42916        -0.44606
H         59.83000        48.56039        -0.59541
