         274
 CSIRO Nanostructure Databank - Neutral Graphene Oxide Data Set
C        -11.15879         0.63889        -0.44488
C         -9.88139         1.39074        -0.18345
C         -8.96234         0.60012         0.76691
C         -7.73412         1.32430         1.20726
C         -6.41108         0.59258         1.15880
C         -5.10071         1.33259         1.23560
C         -3.81089         0.57457         1.39186
C         -2.53925         1.35742         1.60613
C         -1.23535         0.54815         1.67122
C          0.03810         1.42045         1.48215
C          1.35223         0.73282         1.37511
C          2.63372         1.48923         0.95711
C          3.63899         0.50496         0.34882
C          4.79659         1.08972        -0.39841
C          6.06366         0.28451        -0.63042
C          7.36369         1.05210        -0.78205
C          8.59560         0.43585        -0.18556
C          9.64885         1.31654         0.46871
C         10.96696         0.55409         0.43253
C        -10.02162         2.84746         0.15724
C         -8.91491         3.55948         0.56933
C         -7.72051         2.82799         1.06868
C         -6.41322         3.56781         1.09576
C         -5.12577         2.83415         1.37774
C         -3.84589         3.58585         1.26606
C         -2.51924         2.86001         1.45397
C         -1.21322         3.65622         1.18020
C         -0.08619         2.73057         0.76400
C          1.06596         3.32921         0.00809
C          2.41361         2.69533         0.06266
C          3.52022         3.28367        -0.46252
C          4.84534         2.59740        -0.42944
C          6.07867         3.31253        -0.87687
C          7.35201         2.53708        -1.20230
C          8.57040         3.29875        -0.68730
C          9.63600         2.72102        -0.09593
C         -8.85153         4.99470         0.63675
C         -7.62398         5.68038         0.66087
C         -6.41345         4.96751         0.64716
C         -5.15695         5.59317         0.20812
C         -3.87723         4.87778         0.50052
C         -2.58642         5.62679         0.54961
C         -1.44275         4.73687         0.09491
C         -0.18423         5.48511        -0.30348
C          0.96745         4.76962        -0.38997
C          2.17116         5.37591        -0.99279
C          3.47373         4.64941        -1.03710
C          4.73454         5.45226        -1.10512
C          6.01436         4.72535        -1.48707
C          7.26930         5.49298        -1.08444
C          8.61621         4.77129        -1.08010
C         -7.53159         7.19209         0.78039
C         -6.45426         7.81841        -0.12573
C         -5.11228         7.08076        -0.05405
C         -3.82766         7.82226         0.17063
C         -2.54379         7.10030         0.48204
C         -1.20272         7.76843         0.12931
C         -0.39377         6.90211        -0.89064
C          0.91394         7.63427        -1.23891
C          2.18882         6.86744        -1.15532
C          3.43107         7.50334        -0.56653
C          4.70689         6.80029        -0.99840
C          5.95694         7.60991        -1.27335
C          7.21062         6.82888        -0.93188
C         -6.29396         9.30130         0.15583
C         -5.14495         9.94727         0.39733
C         -3.79212         9.29191         0.54791
C         -2.69122         9.98041        -0.28860
C         -1.36580         9.21408        -0.32895
C         -0.27550         9.86002        -0.78042
C          0.98374         9.18213        -1.26307
C          2.29776         9.72778        -0.72509
C          3.44628         9.00999        -0.63755
C          4.74965         9.62942        -0.39809
C          5.90572         8.97913        -0.63865
C        -11.10153        -0.68112        -0.66098
C         -9.80019        -1.44920        -0.52613
C         -9.05111        -0.93759         0.72517
C         -7.70278        -1.65701         0.98583
C         -6.42164        -0.90904         1.31035
C         -5.06347        -1.59739         1.23870
C         -3.80070        -0.78293         1.22167
C         -2.48464        -1.58008         1.20922
C         -1.34131        -0.65525         0.70740
C          0.01263        -1.35139         0.51841
C          1.29462        -0.71466         0.96329
C          2.49100        -1.54734         1.23427
C          3.81786        -0.79432         1.13061
C          4.79671        -1.79089         0.42488
C          6.07204        -1.15522        -0.16377
C          7.37606        -1.84719         0.13339
C          8.61596        -1.02464         0.21097
C          9.74993        -1.52480         1.08780
C         11.01246        -0.76106         0.71660
C        -10.07465        -2.94897        -0.35656
C         -8.76727        -3.69843        -0.22245
C         -7.64683        -3.11380         0.56061
C         -6.27368        -3.79955         0.42530
C         -5.00782        -3.05098         0.80604
C         -3.70431        -3.57827         0.30353
C         -2.54903        -2.87673         0.41899
C         -1.26387        -3.53258        -0.06445
C          0.03955        -2.84344         0.29383
C          1.21597        -3.62844         0.82473
C          2.42967        -2.90669         1.32971
C          3.67208        -3.71474         1.55662
C          5.01810        -2.97661         1.38522
C          6.21207        -3.82900         1.02528
C          7.38471        -3.19249         0.76236
C          8.68910        -3.81183         1.00415
C          9.81204        -3.04206         1.08294
C         -8.65689        -4.94111        -0.76124
C         -7.38447        -5.62839        -0.89777
C         -6.20238        -4.95230        -0.48804
C         -4.91400        -5.61487        -0.70237
C         -3.66522        -4.98422        -0.18164
C         -2.33089        -5.51310        -0.69000
C         -1.21478        -5.01480         0.15667
C         -0.11409        -5.76009         0.44231
C          1.06970        -5.10637         1.06490
C          2.29189        -5.92470         1.34585
C          3.62331        -5.21500         1.50791
C          4.88119        -5.87738         0.95869
C          6.16651        -5.24121         1.56993
C          7.41019        -6.01730         1.14991
C          8.69658        -5.27654         1.44684
C         -7.33308        -6.89294        -1.49316
C         -6.09371        -7.42852        -2.15456
C         -4.80546        -6.79988        -1.61335
C         -3.54644        -7.60063        -1.47561
C         -2.35214        -7.00333        -0.83277
C         -1.26612        -7.77615        -0.50194
C         -0.07470        -7.18455         0.10619
C          1.08052        -7.92657         0.26051
C          2.28190        -7.37604         0.94507
C          3.58699        -8.09701         0.77956
C          4.87887        -7.37873         0.94741
C          6.05936        -8.05306         0.77688
C          7.33547        -7.33617         0.84155
C         -5.98747        -8.93406        -2.30754
C         -4.87917        -9.65277        -2.07385
C         -3.71737        -9.09880        -1.29011
C         -2.40329        -9.81941        -1.35252
C         -1.26513        -9.21438        -0.82170
C         -0.05831        -9.93741        -0.65095
C          1.13873        -9.31750        -0.19381
C          2.34493       -10.00989        -0.24237
C          3.65367        -9.28132        -0.17189
C          4.88266       -10.11193         0.13886
C          6.01774        -9.50085         0.53856
O          8.41560         0.47561        -1.62937
O          3.71542        -4.53364         2.77490
O         -7.25857         3.43309         2.31234
O         -4.47544         4.76842        -0.82150
O         -7.27279        -1.41709         2.36145
O          6.16613        -5.16858         2.97307
O          0.03745         2.49660        -0.66563
O          1.61687         7.18846        -2.45482
O         -8.79072         0.99806         2.15906
O          8.35985        -1.85524        -0.95261
O          1.35069        -5.58350         2.41142
O         -7.15895        -4.02448         1.57295
O          0.88887         1.24533         2.65229
O         -2.47819         6.41501         1.78293
O         -1.18909         6.74280        -2.08070
H         -0.56506         6.61542        -2.83000
O          5.97292         4.66240        -2.93228
H          6.57567         3.93724        -3.22969
O         -3.82459        -6.83174        -2.70391
O         -4.94702        -2.68387         2.22054
O          3.65011         0.49572        -1.09415
O         -2.04822        -4.80294        -1.96260
O         -1.93398         4.05983        -1.07868
H         -1.96639         4.71682        -1.81048
O         -4.56322         3.52226         2.53617
O          2.62038         4.72002        -2.23455
O         -1.37470        -3.52192        -1.56173
O         -5.72527         0.99113        -0.07598
O          9.26366         1.49383         1.85785
H          9.32603         0.61473         2.31363
O         -2.21394        -2.07510         2.53594
H         -3.05599        -2.46120         2.87637
O          5.89415        -0.80590        -1.57266
O         -7.16161         7.49240         2.13302
H         -7.72874         6.97140         2.73861
O          1.07936        -3.30175        -0.60519
O          5.99815         7.81749        -2.71923
H          5.96735         6.92441        -3.13366
O          5.76975         3.21554         0.54309
O         -2.54151         2.23978         2.77051
O         -1.76174        -0.17400        -0.57766
H         -0.95657         0.09127        -1.08167
O          3.21628         2.06624         2.13957
H          3.50216         1.32965         2.73006
O         -1.15984         0.02773         2.99783
H         -1.18965         0.79296         3.61290
O          2.79907        -8.28891         1.98654
O          3.85263        -8.72985        -1.51719
H          4.67162        -8.18902        -1.49340
O         -4.14251        -9.21882         0.11653
H         -3.46627        -8.78773         0.68291
O         -0.37959         7.78602         1.30950
H         -0.91308         8.14010         2.05226
O         -9.90039        -1.31612         1.82478
H         -9.48047        -0.95903         2.64095
O         -3.37585         9.38340         1.92997
H         -4.09822         9.04498         2.49961
O          0.85639        -0.68915        -0.46450
O         -4.27410         7.50032        -1.18802
O         -4.34455        -5.94101         0.67015
O         -0.78354         4.27471         2.39320
H         -1.43102         4.96417         2.66003
O          4.87856        -5.50972        -0.45605
H          5.74906        -5.74625        -0.84173
O          3.28245         7.18957         0.85990
H          4.02122         7.61756         1.34223
O         -6.24533        -6.93501        -3.52714
H         -5.33478        -6.88205        -3.90353
O         -3.16365        10.14271        -1.62828
H         -3.32545         9.25151        -2.00746
O        -10.81452        -3.41930        -1.48039
H        -10.36922        -3.06756        -2.28114
O          5.41009        -2.57070         2.72571
H          5.58183        -3.44120         3.19771
O          4.29318        -0.33655         2.40639
H          4.55447        -1.11953         2.95802
O          8.81884        -5.29004         2.87842
H          7.88274        -5.21293         3.23438
O          1.01569         9.59911        -2.66047
H          1.57813         8.94295        -3.13655
O          7.46445         2.52929        -2.65082
H          8.06986         1.78257        -2.88025
O          9.39874        -1.15163         2.46594
H          9.99434        -1.63721         3.07529
O         -9.15524         1.37620        -1.47858
H         -8.44573         2.05396        -1.45577
O          4.09768        -2.36937        -0.68536
H          4.12446        -1.71742        -1.42618
O         -8.98007        -1.31135        -1.70087
H         -8.97573        -0.35288        -1.95515
O          9.56178         5.47857        -0.28269
H          9.26945         5.43266         0.65074
O         -6.94349         7.66970        -1.47373
H         -6.18610         7.84034        -2.07646
H         11.97562        -1.29593         0.70967
H         11.89451         1.09911         0.19639
H         10.48824         3.36757         0.17436
H          8.99598         4.81425        -2.14087
H          8.13345         7.39028        -0.71113
H          6.86409         9.49416        -0.47004
H          4.76639        10.67108        -0.03999
H          2.36591        10.82766        -0.68809
H         -0.36431        10.92058        -1.06593
H         -2.51199        11.00556         0.12298
H         -5.16868        11.03817         0.54825
H         -7.22389         9.88829         0.08831
H         -8.52692         7.66006         0.54073
H         -9.78253         5.56972         0.52009
H        -10.93127         3.37742        -0.16312
H        -12.10477         1.19495        -0.52219
H        -12.00973        -1.25248        -0.90590
H        -10.69634        -3.11371         0.55936
H         -9.53416        -5.37714        -1.26195
H         -8.28351        -7.39617        -1.72909
H         -6.84035        -9.41365        -2.81301
H         -4.86397       -10.72714        -2.31477
H         -2.37660       -10.88542        -1.62517
H         -0.02667       -10.99607        -0.94938
H          2.34390       -11.06431        -0.56096
H          4.86678       -11.19279        -0.06593
H          6.94290       -10.07823         0.68386
H          8.25428        -7.91010         0.64078
H          9.58009        -5.81300         1.01027
H         10.76972        -3.51267         1.35904
