         210
 CSIRO Nanostructure Databank - Neutral Graphene Oxide Data Set
C         30.51652        32.05899         1.86417
C         30.60225        33.32402         1.76867
C         30.59767        36.35197         1.03670
C         30.60727        37.57392         0.78735
C         30.65243        40.61969        -0.00298
C         30.53320        41.82666        -0.34868
C         32.77708        29.07361         1.58130
C         31.73762        29.75133         1.79300
C         32.96621        31.88509         1.75396
C         31.53250        31.13238         1.77097
C         32.91342        33.30564         1.19087
C         31.69969        34.08912         1.31079
C         32.89611        36.12810         0.52564
C         31.69861        35.45570         0.97446
C         32.90685        37.51982         0.17225
C         31.70312        38.33691         0.29247
C         32.86057        40.30034        -0.83039
C         31.68727        39.68066        -0.05049
C         32.92677        41.83477        -0.77773
C         31.68714        42.59607        -0.69838
C         32.97481        44.48856        -1.25319
C         31.86061        43.96565        -0.97978
C         35.48436        27.49029         1.17103
C         35.29261        28.86415         1.18283
C         34.08529        29.62002         1.30548
C         35.30631        31.66733         0.66925
C         34.09223        31.01620         1.22625
C         35.28264        33.14881         0.41866
C         34.06091        33.93859         0.72431
C         35.32088        35.99528         0.10021
C         34.09323        35.34987         0.43879
C         35.31880        37.37574        -0.23041
C         34.12282        38.13704        -0.26099
C         35.35128        40.21761        -0.83692
C         34.16849        39.56285        -0.58283
C         35.44413        41.72247        -0.73055
C         34.15220        42.46324        -1.05648
C         35.46076        44.42691        -1.83328
C         34.23557        43.87274        -1.36881
C         35.86905        45.78218        -1.98652
C         37.82408        27.30188         0.70482
C         36.54195        26.82058         0.95343
C         37.91625        28.75416         0.99854
C         36.60878        29.56698         1.20925
C         37.79887        31.66099         0.55135
C         36.62292        30.99690         0.82450
C         37.77679        33.09478         0.28256
C         36.57230        33.85119         0.30230
C         37.81277        35.93451        -0.08983
C         36.56889        35.24715         0.09140
C         37.85003        37.32076        -0.38161
C         36.57657        37.99465        -0.70054
C         37.97213        40.16107        -1.26088
C         36.60380        39.46433        -1.06731
C         37.95509        41.67713        -1.12561
C         36.69099        42.29307        -1.38252
C         38.45127        44.63318        -1.65494
C         36.57733        43.55346        -1.97128
C         38.23138        46.00290        -1.37847
C         36.93694        46.41120        -1.84927
C         40.13307        24.57447        -0.25381
C         39.09029        25.24418        -0.04400
C         40.25110        27.29034         0.13554
C         38.97414        26.62155         0.24080
C         40.27644        28.75604         0.23447
C         39.13696        29.46013         0.56703
C         40.29886        31.59980         0.04138
C         39.15131        30.96388         0.78910
C         40.19720        33.00760        -0.26420
C         38.99331        33.78373         0.04276
C         40.28817        35.90809        -0.01285
C         39.03509        35.19226        -0.05777
C         40.28358        37.35076         0.00053
C         39.07047        38.05095        -0.33493
C         40.31022        40.17478        -0.34444
C         39.11428        39.45867        -0.55538
C         40.32509        41.61719        -0.41272
C         39.18005        42.36058        -0.87976
C         40.27247        44.51086        -0.09794
C         39.31240        43.82375        -0.89245
C         40.25859        45.92766         0.05111
C         39.14316        46.65807        -0.52005
C         40.08513        48.66143         0.43921
C         39.18823        48.02434        -0.15993
C         42.71847        24.50256        -0.40196
C         41.43566        25.12137        -0.28007
C         42.75543        27.29546         0.19333
C         41.44407        26.55558        -0.06945
C         42.70586        28.75051        -0.22544
C         41.53485        29.45849        -0.07822
C         42.73282        31.65926        -0.33529
C         41.49885        30.92093        -0.19902
C         42.78422        33.04911        -0.16669
C         41.55708        33.81206        -0.34340
C         42.73717        35.84328         0.49032
C         41.50159        35.20897         0.03620
C         42.71748        37.37216         0.57040
C         41.48266        38.06656         0.17327
C         42.72351        40.19126         0.26881
C         41.50912        39.47982         0.03214
C         42.67817        41.61052         0.36998
C         41.46361        42.29184         0.10534
C         42.54776        44.42869         1.07597
C         41.33267        43.70411         0.51406
C         42.53755        45.91538         1.09115
C         41.34997        46.62778         0.72780
C         42.48392        48.63800         1.41001
C         41.29340        48.07966         0.89764
C         43.74779        25.23571        -0.46043
C         45.23611        27.28900        -0.44228
C         44.02668        26.58981        -0.33271
C         45.27407        28.73055        -0.46970
C         43.97324        29.41616        -0.60305
C         45.28269        31.60694        -0.32012
C         43.99795        30.94385        -0.59655
C         45.24912        32.98253         0.17280
C         44.00764        33.76346         0.09125
C         45.26198        35.90462         0.36076
C         44.03024        35.14208         0.32130
C         45.22842        37.34860         0.43437
C         44.00270        38.07667         0.46824
C         45.19508        40.22290         0.55261
C         43.96972        39.48652         0.42555
C         45.16623        41.63435         0.74176
C         43.87735        42.34262         0.74441
C         45.05450        44.33727         1.63867
C         43.81993        43.68881         1.06120
C         44.96450        45.88359         1.70683
C         43.72961        46.57087         1.53556
C         43.51632        47.96362         1.64853
C         47.60235        27.39475        -0.59561
C         46.54253        26.73227        -0.56077
C         47.75767        28.80157        -0.60558
C         46.48375        29.47221        -0.54962
C         47.75505        31.67298        -0.46075
C         46.49757        30.92571        -0.42877
C         47.74910        33.07138        -0.32843
C         46.58077        33.77806         0.19697
C         47.70719        36.00035        -0.03288
C         46.50569        35.25290         0.16408
C         47.66629        37.41232         0.09463
C         46.45572        38.08285         0.35732
C         47.64524        40.26126         0.63810
C         46.43940        39.53279         0.51328
C         47.63244        41.66260         0.82553
C         46.37840        42.33402         0.88731
C         47.60761        44.48946         1.45129
C         46.31195        43.84481         0.91511
C         47.34690        45.76123         1.89982
C         46.22379        46.39527         1.92024
C         50.27361        28.97763        -0.58458
C         48.97406        29.51857        -0.62346
C         50.26782        31.64350        -0.65750
C         49.01480        30.96026        -0.63671
C         50.26403        33.11105        -0.85474
C         48.90848        33.89104        -0.69809
C         50.16627        36.04580        -0.42870
C         48.94279        35.32753        -0.37194
C         50.18055        37.47045        -0.21078
C         48.88312        38.25677        -0.22408
C         50.17032        40.34521         0.42527
C         48.94365        39.48618         0.69647
C         50.15429        41.74714         0.70941
C         48.89128        42.40924         0.94753
C         50.13309        44.36235         1.35608
C         48.83628        43.80051         1.27070
C         51.39902        29.53239        -0.51008
C         52.65952        31.80277        -0.42797
C         51.53077        30.94091        -0.53127
C         52.58645        33.05414        -0.48342
C         51.48612        33.92083        -0.63877
C         52.54166        36.18249        -0.44058
C         51.42595        35.31106        -0.56179
C         52.53000        37.41833        -0.27417
C         51.36285        38.22300        -0.12316
C         52.47080        40.51020         0.09744
C         51.35455        39.64803         0.10066
C         52.54254        41.73889         0.35831
C         51.41342        42.50129         0.72489
C         51.25071        43.85771         1.09764
O         41.51531        43.87039         1.96915
O         35.07137        32.19115        -0.69964
O         43.92184        30.18807        -1.85339
O         42.59692        36.54277         1.77472
O         37.46934        29.19075         2.34241
O         37.69751        44.03173        -2.67931
O         49.48593        33.55494        -2.00029
O         36.43528        38.43909        -2.11112
O         40.80448        33.42497        -1.52041
O         46.00922        33.18877         1.40441
O         39.43582        31.16017         2.21138
H         38.81415        30.56876         2.70309
O         38.31703        40.01462        -2.67806
H         37.84512        39.20712        -2.99948
O         46.19749        44.28081        -0.46174
H         46.97208        43.94844        -0.96171
O         42.91722        27.32182         1.64412
H         42.91598        26.39527         1.96696
O         32.56319        40.00232        -2.22632
H         31.70387        40.42060        -2.44953
O         35.66320        41.97784         0.70554
H         34.81925        41.81875         1.17999
O         48.70595        38.76713        -1.57494
H         48.69707        38.00635        -2.19282
O         33.24550        32.07963         3.16865
H         33.29634        31.19865         3.59792
O         45.14952        43.87197         3.00500
H         44.29878        44.05111         3.45783
O         49.08356        38.97859         2.04931
H         49.06823        39.73730         2.66935
