         300
 CSIRO Nanostructure Databank - Neutral Graphene Oxide Data Set
C         30.47223        31.56343        -1.44095
C         30.46391        32.77891        -1.23066
C         30.41218        36.17385        -0.69641
C         30.39716        37.37203        -0.38443
C         30.32202        40.30067         0.59450
C         30.27938        41.52129         0.37507
C         33.01214        28.83666        -2.04956
C         31.91107        29.37891        -1.91154
C         32.95515        31.53672        -1.35705
C         31.65411        30.70087        -1.34429
C         32.88830        33.08704        -1.31384
C         31.52380        33.71325        -0.84033
C         32.82838        36.00558        -0.69994
C         31.49844        35.18635        -0.63554
C         32.75482        37.23249         0.27818
C         31.45798        37.99489         0.44634
C         32.71546        40.23801         0.51271
C         31.47214        39.42569         0.98422
C         32.68683        41.54935         0.14588
C         31.35583        42.21982        -0.39490
C         32.71352        44.23329        -0.62579
C         31.63428        43.69585        -0.36511
C         35.72813        27.28487        -1.63865
C         35.62815        28.68804        -2.04998
C         34.34489        29.42644        -2.18387
C         35.50587        31.50071        -1.17595
C         34.28311        30.97675        -1.93924
C         35.40675        32.80326        -0.36185
C         34.08002        33.64328        -0.49636
C         35.37724        35.90700        -0.44469
C         34.05427        35.14519        -0.32550
C         35.33172        37.36686         0.07744
C         34.04466        37.98095         0.66024
C         35.23969        40.21321         0.86965
C         34.01822        39.48615         0.25784
C         35.22351        41.70616         0.67666
C         33.90399        42.45521         0.39932
C         35.24081        44.48923        -0.08484
C         34.09390        43.64726        -0.57604
C         35.42847        45.87462        -0.17027
C         37.58621        27.23967        -0.08774
C         36.51239        26.67672        -0.90972
C         37.73543        28.73497        -0.47136
C         36.93869        29.42691        -1.63240
C         38.04316        31.63067        -1.09155
C         36.70631        30.86056        -1.16006
C         37.98356        33.01137        -0.37814
C         36.64843        33.70705        -0.65911
C         37.85490        35.82787         0.36894
C         36.53233        35.04948         0.19124
C         37.83859        37.28581         0.68128
C         36.57701        38.06377         0.52111
C         37.81721        40.21893         0.74009
C         36.55944        39.44831         1.16372
C         37.80874        41.68540         0.34673
C         36.49573        42.44586         0.50381
C         37.76503        44.61018         0.28802
C         36.47742        43.82056         0.26819
C         37.75559        46.12093         0.38957
C         36.44559        46.57527         0.09603
C         39.98736        24.51743         1.07385
C         39.01815        25.16565         0.60870
C         39.88004        27.30023         1.04446
C         38.75092        26.53242         0.42836
C         39.91436        28.79342         0.89111
C         39.14787        29.28212        -0.33224
C         40.40661        31.59178         0.03815
C         39.26192        30.81510        -0.55438
C         40.50637        33.11504        -0.15912
C         39.10784        33.72909        -0.16075
C         40.45507        35.94906        -0.22470
C         39.04930        35.26073        -0.40191
C         40.35555        37.42451         0.19477
C         39.10424        38.09199         0.66474
C         40.30178        40.29885         0.58560
C         39.02182        39.57526         0.65791
C         40.29248        41.72694         1.02173
C         38.94019        42.45233         1.07849
C         40.25324        44.67485         1.04775
C         39.04200        43.90021         0.58242
C         40.19575        46.17123         1.09350
C         38.90432        46.83641         0.66486
C         40.21441        48.86546         0.24019
C         39.17173        48.21208         0.40974
C         42.61930        24.60495         1.08787
C         41.28757        25.08728         1.45458
C         42.43506        27.36966         0.68667
C         41.22221        26.63945         1.30414
C         42.48556        28.91584         0.64241
C         41.22975        29.46973         1.33808
C         42.44946        31.69177         1.67641
C         41.20484        30.99543         1.15469
C         42.71247        33.10544         1.29414
C         41.48571        33.81182         0.81535
C         42.66607        36.13978         1.12318
C         41.43273        35.31125         0.77197
C         42.68006        37.66904         0.85673
C         41.59316        38.23630        -0.11882
C         42.77503        40.42882         0.01118
C         41.47575        39.69700         0.24160
C         42.84433        41.81947         0.58147
C         41.57898        42.49338         1.00104
C         42.81866        44.68788         1.24697
C         41.57424        43.98670         0.70406
C         42.79499        46.19222         1.30113
C         41.48131        47.04643         1.21573
C         42.82463        49.04621         0.62269
C         41.58839        48.25147         0.17512
C         43.65225        25.28140         0.96221
C         45.00437        27.47110         0.44993
C         43.74714        26.66020         0.44740
C         45.05022        28.86880         1.09941
C         43.70673        29.49888         1.39133
C         45.50398        31.75323         1.89618
C         43.53654        30.70836         2.00208
C         45.34694        33.20594         1.71952
C         43.95321        33.88512         1.56200
C         45.32311        36.26518         1.27712
C         43.96540        35.41676         1.38063
C         45.13014        37.29095         0.11705
C         44.00121        38.25307         0.41854
C         45.34968        40.31885         0.38033
C         44.03314        39.59561         0.24173
C         45.23742        41.80010         0.03806
C         44.01097        42.50482         0.53440
C         45.33371        44.70558         0.56100
C         44.14967        43.87817         1.17035
C         44.94143        46.10022        -0.01939
C         44.07383        46.89976         0.92127
C         43.81178        48.24166         0.73499
C         47.38032        27.47227         0.68934
C         46.32531        26.84190         0.53204
C         47.68410        28.57704         1.59312
C         46.38032        29.45135         1.79483
C         47.54116        31.66682         0.64111
C         46.48819        30.96101         1.37667
C         47.65136        33.04642         0.65468
C         46.60462        33.90846         1.28502
C         47.80181        36.08653         0.45478
C         46.58428        35.39050         1.04941
C         47.75064        37.50764        -0.01774
C         46.39690        38.06707        -0.50712
C         47.63390        40.26953        -0.63971
C         46.48838        39.59887        -0.32153
C         47.78878        41.73601        -0.34757
C         46.51331        42.53434        -0.19392
C         47.76440        44.77662        -0.54746
C         46.58626        44.01272         0.09071
C         47.24529        46.09987        -0.93615
C         46.23498        46.66532        -0.50837
C         50.21558        28.78444         1.25195
C         49.08532        28.86070         1.99087
C         49.99169        31.48384         0.16598
C         48.59954        30.88728        -0.08341
C         50.00992        32.91103        -0.38859
C         48.80817        33.74469        -0.01574
C         50.05410        35.83460        -0.77045
C         49.08225        35.24698         0.28499
C         50.07468        37.30429        -1.10013
C         49.05372        38.24624        -0.45749
C         50.10512        40.24853        -1.62020
C         48.75902        39.50275        -1.33957
C         50.27332        41.71495        -1.23613
C         49.04105        42.47648        -0.74732
C         50.14554        44.41898        -1.75272
C         48.99823        44.02909        -0.91799
C         51.12427        29.35625         0.52648
C         52.21409        31.33234        -0.74259
C         51.19670        30.54240        -0.14067
C         52.30111        32.51868        -1.10902
C         51.35728        33.56997        -0.68317
C         52.24500        35.78334        -1.84269
C         51.34476        35.02265        -0.98119
C         52.16014        36.94607        -2.26051
C         51.45262        38.00376        -1.43904
C         52.52847        40.31117        -1.98833
C         51.34642        39.42670        -1.94597
C         52.53710        41.52925        -2.25026
C         51.57021        42.45488        -1.64139
C         51.21484        43.84418        -1.96420
O         42.85429        40.65863        -1.49459
O         46.46100        44.55386         1.44430
O         49.49582        36.33991        -2.01688
O         38.69347        44.17467        -0.80753
O         45.60971        42.20892        -1.31405
O         31.91168        37.03101         1.44735
O         37.06177        28.36116         0.72652
O         37.95515        36.27664         1.74304
O         47.08924        34.82610         2.32488
O         45.07194        28.66406        -0.35298
O         48.79183        42.08649         0.63891
O         48.34099        28.04703         2.84269
O         48.90631        44.73290         0.33310
O         36.12184        38.17977        -0.85480
O         51.34818        42.06466        -0.28596
O         50.47953        39.87449        -3.00742
O         40.50498        30.98242        -1.27567
O         31.41856        34.26264         0.47395
O         48.37102        29.90500        -0.75062
O         32.43945        30.91220        -0.15081
O         44.56902        31.23422         2.78000
O         33.79895        34.26804         0.78670
O         51.87231        34.51554         0.27704
O         40.06226        45.34187         2.31069
O         47.92040        37.23441         1.39166
O         42.73643        45.38218         2.52269
O         41.04169        42.01391         2.26507
O         35.13917        29.07206        -3.34375
O         43.13679        35.91019         2.47742
O         40.06786        37.55480         1.61394
O         49.01144        33.26600        -1.38587
O         41.32202        25.95770         2.58949
O         35.00112        41.06952         2.01117
O         44.63225        33.71755         2.86682
O         40.81576        34.60932         1.86666
O         41.14134        31.64752         2.42950
O         38.29359        31.95947        -2.41141
O         39.26526        28.23124         2.03936
O         38.70784        35.43940        -1.74543
O         42.80492        26.85137        -0.63769
O         44.09954        45.78843        -1.13865
H         43.55743        46.57476        -1.38004
O         35.45478        32.29356         0.97400
H         35.07143        32.97591         1.57529
O         41.42866        29.16673         2.71533
H         40.67931        29.52540         3.23809
O         49.76871        35.28566         1.54574
H         49.08804        35.21472         2.25665
O         49.68366        38.81212         0.69475
H         49.39393        38.30826         1.49235
O         38.52399        42.53304         2.45150
H         39.33628        42.52799         3.01171
O         44.58020        36.42544        -0.90618
H         44.70108        36.88261        -1.77459
O         52.15936        38.15613        -0.22395
H         52.34388        37.28231         0.17932
O         42.40579        38.30514         2.12011
H         42.69939        37.69623         2.83734
O         38.07335        41.64929        -1.07787
H         38.21227        42.57835        -1.39344
O         36.66288        39.24665         2.57631
H         36.31422        40.04962         3.02490
O         46.25923        37.75442        -1.89891
H         46.78356        38.38161        -2.45556
O         36.11481        34.68802         1.49952
H         36.61644        35.24228         2.14980
O         45.66277        40.30393         1.80020
H         45.57629        39.38605         2.14159
O         33.00744        33.63248        -2.63426
H         33.68582        33.12874        -3.14826
O         35.56475        36.01295        -1.86383
H         36.21171        36.74065        -2.03261
O         34.12676        39.50478        -1.18134
H         33.94509        40.40640        -1.52254
O         41.36688        47.70200         2.47883
H         41.33883        47.00563         3.17194
O         39.87967        28.63468        -1.40288
H         39.45403        28.90869        -2.25637
O         50.04016        31.66257         1.60701
H         50.91571        32.03406         1.85024
O         45.48584        36.99632         2.48071
H         45.74814        36.36717         3.18834
O         33.56144        43.10948         1.63902
H         33.59824        42.43529         2.35508
O         34.43900        43.12982        -1.86298
H         34.46491        43.86470        -2.51075
O         41.80673        47.75487        -1.12434
H         41.81085        48.49942        -1.76178
O         34.20355        37.90470         2.07820
H         33.31327        37.73038         2.47211
O         41.66299        44.11766        -0.73944
H         41.85494        43.24407        -1.16328
O         41.08729        35.84530        -1.50360
H         40.33032        35.63356        -2.13240
O         36.64225        33.90592        -2.05515
H         37.48820        34.39952        -2.28263
O         41.70130        41.47725        -1.83800
H         41.23047        40.90874        -2.49621
O         31.59446        39.37180         2.40319
H         30.92307        38.74802         2.75188
O         42.50086        29.37115        -0.69932
H         42.85670        28.65214        -1.27289
O         48.23877        39.15223        -2.62703
H         48.99342        39.02875        -3.25622
O         44.50441        43.56229         2.51967
H         44.32616        44.35129         3.07942
O         34.41005        31.54726        -3.26270
H         35.06697        31.00620        -3.76182
O         46.11814        29.39123         3.18963
H         46.92061        29.07388         3.66347
O         37.78851        29.44942        -2.78581
H         37.99908        30.41111        -3.00233
O         41.07468        33.32843        -1.45499
H         40.50166        32.85668        -2.10535
O         32.95032        36.51937        -2.02100
H         33.87929        36.39809        -2.34052
O         42.02077        38.20014        -1.47785
H         41.94174        37.26780        -1.80757
O         31.26364        41.82946        -1.74768
H         30.38272        42.07581        -2.09697
