         420
 CSIRO Nanostructure Databank - Neutral Graphene Oxide Data Set
C         27.91583        27.48906         0.90720
C         27.90977        28.88821         0.60111
C         26.70530        29.55602         0.26708
C         27.93829        31.59966        -0.24446
C         26.72233        30.86792        -0.16032
C         27.98646        32.91957        -0.83813
C         26.86809        33.42853        -1.54276
C         28.15796        35.36297        -2.16781
C         26.97195        34.61289        -2.24909
C         28.14913        37.62975        -2.28029
C         26.93309        38.32464        -2.39852
C         27.94595        40.21604        -1.27122
C         26.81123        39.58063        -1.83510
C         27.89217        41.61051        -0.90296
C         26.66247        42.33020        -0.87817
C         27.84559        44.41626        -0.47370
C         26.63500        43.68540        -0.64942
C         27.83121        45.83876        -0.39193
C         30.35668        27.50218         1.09710
C         29.09230        26.81979         1.10326
C         30.36260        28.93723         0.91805
C         29.13250        29.60981         0.59681
C         30.36400        31.73406         0.20909
C         29.13922        30.98480         0.20616
C         30.35178        33.08169        -0.20243
C         29.19464        33.68231        -0.78685
C         30.41192        35.89264        -1.18028
C         29.24936        35.01000        -1.35968
C         30.42404        37.29361        -1.23411
C         29.24186        38.11334        -1.54172
C         30.37334        40.19660        -0.80383
C         29.17552        39.49599        -1.16824
C         30.33219        41.57353        -0.55655
C         29.10073        42.29856        -0.60275
C         30.31434        44.46999        -0.31573
C         29.07812        43.72112        -0.42380
C         30.26870        45.91738        -0.28141
C         29.00847        46.55824        -0.31052
C         32.79630        24.66513         0.92868
C         31.64076        25.37069         0.83693
C         32.82807        27.46978         1.42402
C         31.56445        26.77285         1.17017
C         32.83315        29.00681         1.23097
C         31.57127        29.66456         0.87476
C         32.84614        31.72001         0.44994
C         31.60023        31.05155         0.53616
C         32.86234        33.17199         0.23987
C         31.57150        33.89077        -0.10113
C         32.91470        35.92751        -0.62694
C         31.70105        35.11745        -0.99580
C         32.87755        37.34885        -0.67539
C         31.64094        38.04255        -0.89390
C         32.85760        40.18485        -0.66719
C         31.63171        39.45739        -0.78232
C         32.83295        41.70126        -0.82154
C         31.59243        42.28814        -0.12762
C         32.80479        44.55738        -0.44692
C         31.52757        43.78748        -0.26277
C         32.70181        45.98794         0.01153
C         31.49583        46.66723        -0.08931
C         32.67272        48.82782         0.19054
C         31.51210        48.11078         0.06871
C         35.33012        23.12443         1.27597
C         35.31464        24.52494         1.21866
C         34.04084        25.26929         1.54326
C         35.29200        27.42875         1.01671
C         34.10003        26.74917         1.25963
C         35.29619        28.87117         0.80129
C         34.10204        29.62566         0.82910
C         35.32618        31.67984         0.20175
C         34.08555        31.00836         0.48166
C         35.30198        33.09174        -0.12941
C         34.12898        33.81546        -0.13894
C         35.34867        35.97254        -0.28872
C         34.11330        35.24793        -0.37839
C         35.33031        37.38527        -0.29241
C         34.08864        38.07668        -0.46613
C         35.35566        40.22162        -0.55960
C         34.06676        39.49922        -0.55199
C         35.35365        41.73505        -0.40254
C         34.06867        42.42116        -0.32552
C         35.25573        44.47742         0.26748
C         34.05041        43.78192        -0.05333
C         35.18819        45.91600         0.54941
C         33.90764        46.70900         0.42203
C         35.18024        48.87185         0.30404
C         33.95755        48.19109         0.29153
C         35.31971        50.30335         0.27322
C         37.71231        23.05676         0.80062
C         36.49247        22.39273         1.03104
C         37.71570        24.47163         0.83709
C         36.51985        25.22767         0.96660
C         37.71176        27.39306         0.57383
C         36.52325        26.68515         0.84919
C         37.74409        28.80706         0.52956
C         36.53399        29.54910         0.55206
C         37.81793        31.62301         0.03822
C         36.54015        30.96360         0.27852
C         37.85505        33.05270        -0.36277
C         36.55878        33.80486        -0.44177
C         37.80812        35.95315        -0.14113
C         36.58669        35.26827        -0.26091
C         37.81237        37.37966         0.00216
C         36.56557        38.10248        -0.09690
C         37.73939        40.25451         0.25257
C         36.55994        39.50084        -0.13764
C         37.78096        41.72190         0.14786
C         36.57225        42.42471         0.04901
C         37.74335        44.51923         0.64470
C         36.52242        43.81986         0.33059
C         37.62675        45.96991         0.78110
C         36.45030        46.65371         0.52095
C         37.77404        48.85045         0.27598
C         36.44696        48.10326         0.25259
C         37.79422        50.31481         0.52881
C         36.52031        50.97155         0.38121
C         40.18743        20.43675        -0.47032
C         38.95717        21.08523        -0.11436
C         40.24571        22.97836         0.79469
C         38.94596        22.32416         0.47004
C         40.26049        24.47401         0.83736
C         38.97185        25.16408         0.47769
C         40.25570        27.36300         0.11298
C         38.94533        26.63985         0.25249
C         40.30314        28.81539         0.29498
C         39.04741        29.55097         0.69877
C         40.29252        31.67056        -0.02620
C         39.00386        30.95778         0.16955
C         40.29532        33.14484         0.10790
C         39.08822        33.82727        -0.10366
C         40.29686        35.94782         0.02007
C         39.06408        35.24077        -0.07748
C         40.29280        37.38036         0.00332
C         39.04787        38.05989         0.08165
C         40.30624        40.25401         0.12844
C         39.07387        39.49593         0.35832
C         40.27247        41.67507         0.13027
C         39.01482        42.40623         0.29352
C         40.28580        44.48264         0.43110
C         38.99507        43.81803         0.52354
C         40.55308        45.72166         0.96381
C         38.74664        46.80518         1.15323
C         40.27530        48.79440         0.62323
C         38.94116        48.09221         0.76186
C         40.22455        50.14061         1.32985
C         38.97866        50.94273         0.92586
C         40.26341        52.99128         1.35398
C         39.06780        52.36378         1.13813
C         42.64263        20.33754        -0.59617
C         41.42008        20.97542        -0.19233
C         42.76704        23.06259         0.24980
C         41.56238        22.21087         0.67251
C         42.79361        24.45286         0.39842
C         41.58599        25.23837         0.88077
C         42.80629        27.35968         0.37145
C         41.54825        26.60502         0.22502
C         42.78083        28.76490         0.35363
C         41.51400        29.46133         0.31514
C         42.81399        31.63803         0.53478
C         41.57577        30.92927         0.14307
C         42.74028        33.11443         0.66962
C         41.50486        33.83881         0.30221
C         42.77860        35.98003         0.12510
C         41.52831        35.25087         0.18153
C         42.76167        37.40099        -0.07544
C         41.51986        38.10578        -0.04636
C         42.74217        40.25604        -0.27264
C         41.51273        39.54469        -0.09221
C         42.71729        41.68901        -0.34230
C         41.47636        42.36039        -0.16805
C         42.72188        44.58945        -0.35363
C         41.41333        43.82455        -0.26535
C         42.79605        45.97984         0.11895
C         41.63607        46.59199         0.61729
C         42.77277        48.72649         0.83032
C         41.57474        48.01052         0.84556
C         42.76148        50.17997         1.03442
C         41.53757        50.88136         1.16322
C         42.75581        52.97711         1.36076
C         41.52946        52.28419         1.30954
C         43.84738        20.98030        -0.51204
C         45.18422        23.09318        -0.27624
C         43.94795        22.37809        -0.15751
C         45.21369        24.50802        -0.08199
C         43.99787        25.18890         0.20496
C         45.23346        27.35290         0.22716
C         44.01371        26.62979         0.31655
C         45.20850        28.77066         0.38475
C         43.99728        29.49324         0.49165
C         45.25154        31.66191         1.15113
C         43.98244        30.93832         0.70266
C         45.30822        33.06856         0.41568
C         44.03986        33.88398         0.63558
C         45.23535        35.99804        -0.03496
C         44.01400        35.30186         0.19835
C         45.22674        37.40714        -0.25352
C         43.98695        38.11524        -0.23566
C         45.20360        40.26526        -0.49084
C         43.97356        39.54711        -0.34825
C         45.19616        41.69178        -0.58684
C         43.95243        42.41347        -0.50511
C         45.17303        44.57719        -0.48144
C         43.97782        43.83683        -0.44286
C         45.21940        45.98406        -0.22263
C         44.01948        46.68058         0.12438
C         45.25132        48.74034         0.60564
C         44.02501        48.05295         0.55379
C         45.29802        50.12248         1.22234
C         43.98687        50.88698         1.12216
C         43.95919        52.27909         1.30281
C         47.60807        23.12998        -0.62450
C         46.42256        22.43884        -0.56624
C         47.67290        24.54388        -0.42814
C         46.45047        25.24096        -0.17875
C         47.68912        27.39775        -0.10837
C         46.46431        26.65819        -0.00774
C         47.66825        28.79672         0.10409
C         46.45699        29.48125         0.41942
C         47.76096        31.36345         1.13968
C         46.49026        30.82161         0.84943
C         47.76835        33.50793         1.02042
C         46.52473        33.97607         0.59988
C         47.72572        36.02799        -0.01777
C         46.49215        35.30807         0.10453
C         47.68743        37.43295        -0.25507
C         46.47155        38.12085        -0.36736
C         47.64719        40.28989        -0.71351
C         46.44949        39.57096        -0.52385
C         47.65648        41.70508        -0.84162
C         46.42082        42.39244        -0.76171
C         47.71154        44.62302        -0.82291
C         46.39475        43.86035        -0.87125
C         47.69656        46.02002        -0.35419
C         46.46549        46.68876        -0.13913
C         47.70390        48.78052         0.30481
C         46.46481        48.07383         0.26116
C         47.65472        50.22571         0.43644
C         46.51845        50.87879         0.76486
C         50.17277        24.58897        -0.58683
C         48.91779        25.25871        -0.45635
C         50.17515        27.36667        -0.29740
C         48.93491        26.68314        -0.31693
C         50.18901        28.83070        -0.23694
C         48.89881        29.59338        -0.03128
C         50.15419        31.75803         0.51564
C         48.96246        30.93084         0.59141
C         50.17883        33.15630         0.43396
C         49.00462        33.99990         0.51620
C         50.23747        36.03452        -0.18392
C         48.97935        35.34162         0.06298
C         50.23876        37.43548        -0.34236
C         48.96808        38.21468        -0.09911
C         50.20092        40.26110        -1.05512
C         48.91383        39.53082        -0.83749
C         50.17112        41.73977        -0.97672
C         48.92449        42.43302        -0.88085
C         50.16840        44.53103        -0.49835
C         48.95303        43.83911        -0.72355
C         50.17081        45.94829        -0.22025
C         48.93076        46.67423        -0.12351
C         50.19478        48.72608         0.33682
C         48.93316        48.07910         0.16664
C         51.37207        25.26055        -0.54210
C         52.66837        27.39626        -0.34433
C         51.42741        26.67921        -0.38185
C         52.69178        28.79596        -0.03373
C         51.42921        29.50107         0.23725
C         52.71897        31.68023         0.27809
C         51.43808        30.99021         0.50703
C         52.70994        33.18659         0.40482
C         51.43130        33.78886        -0.18547
C         52.68358        35.99427        -0.26461
C         51.45577        35.30806        -0.15963
C         52.69129        37.41317        -0.44795
C         51.46014        38.13265        -0.50631
C         52.67100        40.24775        -0.84139
C         51.47954        39.55826        -0.75253
C         52.66456        41.71284        -1.26171
C         51.38380        42.42924        -0.89311
C         52.63549        44.49863        -0.33600
C         51.40091        43.81900        -0.58870
C         52.64281        45.87917        -0.00857
C         51.39519        46.61775         0.00916
C         51.37082        48.02185         0.26995
C         55.11833        27.43546        -0.47314
C         53.94141        26.78928        -0.68009
C         55.15169        28.73679         0.29492
C         53.87887        29.51398         0.07524
C         55.11545        31.61634        -0.49060
C         53.87287        30.95861         0.07656
C         55.14245        33.12450        -0.33295
C         53.96218        33.85217        -0.12132
C         55.15810        35.95500        -0.52853
C         53.94562        35.26347        -0.27864
C         55.16146        37.40702        -0.63741
C         53.93039        38.12463        -0.59475
C         55.16074        40.23707        -0.89102
C         53.92948        39.54802        -0.74610
C         55.21437        41.73966        -1.10055
C         53.90670        42.42689        -0.80314
C         55.09510        44.42433        -0.00512
C         53.87761        43.75892        -0.39064
C         55.06469        45.78145         0.34939
C         53.87627        46.50103         0.32487
C         56.39774        29.56375         0.12784
C         56.37906        30.88303        -0.09622
C         56.32535        33.82284        -0.64361
C         56.34488        35.20703        -0.68695
C         56.35715        38.12133        -0.81221
C         56.35236        39.50884        -0.93633
C         56.38272        42.39291        -0.40975
C         56.32128        43.66687         0.04126
O         35.53167        41.08115        -1.75462
O         41.83651        44.40816        -1.53746
O         37.23942        33.33347        -1.66717
O         40.96804        26.83545        -1.07796
O         40.12053        23.69945         2.07954
O         28.27456        36.45635        -3.03869
O         47.00567        44.40372        -2.09464
O         49.48610        39.60529        -2.17287
O         47.79762        32.48900         1.97895
O         41.07369        31.26975        -1.22227
O         32.11345        33.98826         1.23747
O         51.40269        30.00449         1.61926
O         43.35812        33.65434         1.89748
O         38.31009        39.84534         1.55503
O         49.54023        29.50391        -1.36240
O         38.81721        25.69501        -0.87883
O         32.82487        28.39485         2.56525
O         39.70974        46.20032         1.96400
O         34.37977        46.24414         1.76776
O         37.20862        48.42339        -1.00031
O         40.07918        49.87229         2.75228
H         40.14081        50.72683         3.22830
O         52.65319        33.47166         1.83361
H         53.37575        32.97805         2.27490
O         32.93915        44.69458        -1.92126
H         32.82639        43.78009        -2.29766
O         45.48259        49.90789         2.67261
H         46.32334        49.41554         2.78659
O         49.01714        38.60856         1.31983
H         49.02459        37.78723         1.85607
O         31.79595        41.99453         1.29379
H         31.02758        42.34869         1.78903
O         32.72933        41.97064        -2.25463
H         33.56754        41.63857        -2.65379
O         41.83375        25.57037         2.27620
H         41.52711        24.80336         2.81299
O         52.70166        41.71400        -2.72988
H         53.63662        41.53043        -2.99568
O         51.41446        33.40620        -1.58858
H         50.65491        33.84836        -2.02184
O         33.88067        25.14169         3.00277
H         33.19146        25.78341         3.28007
O         39.18987        29.69503         2.17139
H         38.34656        30.05888         2.51759
O         41.88933        21.71617         2.00369
H         41.50749        22.35629         2.64588
O         55.15715        28.35404         1.71862
H         54.30112        27.91132         1.90268
O         45.34614        32.71795        -0.99483
H         45.36431        33.54294        -1.52432
O         31.98021        34.54074        -2.32119
H         32.02187        35.27613        -2.96860
O         55.00428        31.42759        -1.94336
H         54.89849        30.46715        -2.11126
O         45.17404        31.85236         2.56939
H         46.03335        32.22732         2.86850
O         55.45187        41.91271        -2.56119
H         55.55818        42.87525        -2.72227
O         40.34864        49.13000        -0.79624
H         40.15889        48.32437        -1.32174
H         26.95798        26.94991         0.93993
H         25.75580        29.00337         0.31189
H         25.77286        31.34242        -0.44128
H         25.93922        32.84836        -1.60983
H         26.15326        34.96453        -2.88985
H         26.10352        37.87017        -2.95512
H         25.85836        40.11670        -1.92685
H         25.71351        41.80215        -1.03974
H         25.67822        44.22693        -0.64194
H         26.86600        46.36398        -0.42574
H         29.07165        25.74051         1.30769
H         28.95176        47.65428        -0.27166
H         32.80293        23.60377         0.64115
H         30.73917        24.87312         0.44985
H         32.61755        49.92574         0.20881
H         30.56510        48.66422         0.01029
H         34.40270        22.58260         1.50803
H         34.40449        50.91035         0.21085
H         36.45660        21.29446         1.04140
H         36.48771        52.07068         0.40852
H         40.13112        19.48525        -1.01993
H         38.01174        20.58484        -0.36688
H         40.28865        54.08305         1.48664
H         38.15474        52.97403         1.07723
H         42.59163        19.32039        -1.01319
H         42.75813        54.07040         1.47707
H         44.74998        20.44512        -0.83655
H         44.89632        52.84235         1.40749
H         48.52759        22.56812        -0.83636
H         46.44288        21.35230        -0.72459
H         48.55807        50.80725         0.20220
H         46.53204        51.97602         0.82537
H         50.19453        23.49668        -0.69918
H         50.23135        49.80235         0.55203
H         52.30642        24.68723        -0.61521
H         52.31241        48.56499         0.42329
H         56.06934        26.94720        -0.73316
H         53.94766        25.79271        -1.14584
H         55.99969        46.28141         0.64104
H         53.90400        47.56320         0.59924
H         57.35272        29.05612         0.33633
H         57.33473        31.42720        -0.14333
H         57.25158        33.27196        -0.85499
H         57.29579        35.71042        -0.90398
H         57.32067        37.59828        -0.85949
H         57.30836        40.02434        -1.09833
H         57.33884        41.85281        -0.36640
H         57.21421        44.14843         0.46811
