         404
 CSIRO Nanostructure Databank - Neutral Graphene Oxide Data Set
C          1.26073         2.00080        -0.89322
C          1.22901         3.41812        -0.71742
C          2.42424         1.28518        -0.86491
C          2.38061         4.16903        -0.54721
C          1.20187         6.36172        -0.57260
C          1.19943         7.74750        -0.53864
C          2.40251         5.62135        -0.57929
C          2.40104         8.49371        -0.51934
C          1.19867        10.68990        -0.67082
C          1.20974        12.07904        -0.65057
C          2.37248         9.92972        -0.48974
C          2.41028        12.84101        -0.54157
C          1.19850        15.05409        -0.64943
C          1.16654        16.41415        -0.58203
C          2.40675        14.28512        -0.45588
C          2.32247        17.17911        -0.11336
C          2.42106        18.63325        -0.34260
C          3.67670         1.91590        -0.45367
C          3.65089         3.47128        -0.29519
C          4.96699         1.28850        -0.71645
C          4.91859         4.18591        -0.50650
C          3.64909         6.33140        -0.57609
C          3.64929         7.76809        -0.55590
C          4.89365         5.62638        -0.60292
C          4.88447         8.46294        -0.60153
C          3.61910        10.68065        -0.30267
C          3.63911        12.14586        -0.45760
C          4.92362         9.92864        -0.42031
C          4.88472        12.83297        -0.41697
C          3.63127        14.95468        -0.28172
C          3.64373        16.39610         0.00929
C          4.87853        14.26197        -0.35683
C          4.89971        17.13832        -0.17103
C          3.61117        19.27822        -0.28459
C          4.88412        18.58247        -0.19864
C          6.15259         2.01668        -0.64687
C          6.10659         3.46915        -0.61825
C          7.41606         1.33602        -0.59451
C          7.35632         4.20905        -0.84180
C          6.12485         6.35054        -0.62315
C          6.11672         7.77884        -0.61963
C          7.37106         5.66086        -0.63182
C          7.36768         8.50216        -0.53474
C          6.13926        10.68074        -0.91389
C          6.13474        12.13485        -0.48705
C          7.39760         9.91975        -0.56911
C          7.34050        12.83333        -0.45388
C          6.11065        14.98303        -0.38329
C          6.07740        16.42846        -0.38706
C          7.34277        14.26382        -0.40754
C          7.30907        17.18971        -0.61744
C          6.07753        19.29875        -0.23970
C          7.33644        18.63886        -0.35783
C          8.63942         2.00324        -0.49514
C          8.67733         3.45843        -0.75580
C          9.85990         1.35009        -0.22172
C          9.88171         4.22300        -0.39958
C          8.59601         6.34874        -0.49928
C          8.58883         7.78028        -0.42367
C          9.84519         5.63986        -0.36297
C          9.80746         8.49236        -0.22185
C          8.60182        10.62400        -0.45011
C          8.61145        12.09347        -0.84920
C          9.79333         9.90493        -0.21902
C          9.95879        12.83475        -0.49542
C          8.59841        14.95866        -0.29780
C          8.63800        16.41923        -0.50129
C          9.79525        14.28346        -0.07674
C          9.79922        17.18199        -0.08810
C          8.56192        19.29812        -0.30058
C          9.79777        18.58668        -0.14945
C         11.07792         2.06285        -0.10697
C         11.07410         3.51205        -0.14563
C         12.30481         1.38434         0.06594
C         12.29499         4.23089         0.01674
C         11.05613         6.36766        -0.11282
C         11.04537         7.78505        -0.02886
C         12.29158         5.65613         0.02101
C         12.26957         8.50626         0.19662
C         10.97224        10.61738         0.30631
C         10.91187        12.09593         0.44255
C         12.26474         9.91594         0.37201
C         12.19648        12.82948         0.85047
C         10.99463        14.98554         0.28191
C         10.93915        16.45994         0.46876
C         12.19230        14.29190         0.46774
C         12.23279        17.24704         0.73679
C         11.04902        19.28262        -0.04963
C         12.26157        18.66991         0.25706
C         13.53601         2.07087         0.11893
C         13.52921         3.52191         0.09019
C         14.76364         1.37153         0.21812
C         14.73841         4.24200         0.07992
C         13.52047         6.37248         0.14082
C         13.51098         7.79941         0.22644
C         14.75636         5.65891         0.14020
C         14.73733         8.52281         0.33576
C         13.47721        10.65580         0.43368
C         13.47882        12.08927         0.51125
C         14.72772         9.94929         0.39113
C         14.68249        12.81042         0.53659
C         13.43557        14.98410         0.61452
C         13.45661        16.40107         0.77147
C         14.66786        14.25707         0.64730
C         14.66929        16.99521         1.09373
C         13.47468        19.39199        -0.05420
C         14.71014        19.08279         0.51436
C         16.00747         2.03638         0.14523
C         15.99282         3.49526        -0.09532
C         17.23936         1.38142         0.23504
C         17.29476         4.26202         0.01117
C         16.00052         6.38373         0.25597
C         15.97703         7.80823         0.37599
C         17.24120         5.70544         0.28820
C         17.20302         8.52477         0.48417
C         15.96295        10.66963         0.40502
C         15.95238        12.11936         0.47059
C         17.18006         9.94827         0.43063
C         17.15049        12.84633         0.57606
C         15.90110        14.96559         0.72434
C         15.92645        16.38443         0.88507
C         17.14325        14.26867         0.72718
C         17.13847        17.14889         0.83571
C         16.03749        19.36869         0.13008
C         17.16179        18.58144         0.52984
C         18.48779         2.08388         0.29680
C         18.51948         3.51308         0.31651
C         19.71035         1.38643         0.38840
C         19.71468         4.22065         0.53757
C         18.46117         6.39761         0.50337
C         18.44901         7.81748         0.57198
C         19.70819         5.66858         0.58856
C         19.69264         8.52619         0.69842
C         18.46182        10.65083         0.34511
C         18.45884        12.18025         0.44539
C         19.70863         9.94757         0.67006
C         19.66469        12.82451         0.96980
C         18.34027        15.00115         0.92231
C         18.36305        16.42170         0.92255
C         19.55472        14.25502         1.30601
C         19.64099        17.12430         0.97409
C         18.42804        19.20556         0.42523
C         19.63916        18.55640         0.70882
C         20.93337         2.07554         0.51463
C         20.94371         3.50141         0.64607
C         22.17798         1.38995         0.41913
C         22.18536         4.18701         0.80081
C         20.92287         6.35790         0.71041
C         20.92022         7.80248         0.75142
C         22.17717         5.63013         0.79083
C         22.13473         8.53178         0.75130
C         20.91037        10.67815         0.80347
C         20.89634        12.13475         1.01954
C         22.12595         9.93439         0.79774
C         22.09810        12.81072         1.40327
C         20.82410        15.03828         1.55846
C         20.84128        16.47486         1.20164
C         22.10043        14.25550         1.72312
C         22.14293        17.25399         1.37294
C         20.85258        19.27878         0.67438
C         22.12034        18.68446         0.81417
C         23.40792         2.02643         0.56600
C         23.41356         3.45571         0.87203
C         24.58531         1.24606         0.16847
C         24.61623         4.22067         1.04355
C         23.38924         6.33540         0.76331
C         23.41191         7.79979         0.41068
C         24.61529         5.63818         0.87808
C         24.66999         8.51884         0.85254
C         23.40349        10.66602         0.71652
C         23.37938        12.16408         1.07700
C         24.65698         9.90692         0.86425
C         24.67447        12.80193         1.47599
C         23.40455        15.04336         1.72691
C         23.36757        16.38170         1.10818
C         24.71250        14.30472         1.67510
C         24.50580        16.80088         0.47710
C         23.25237        19.52208         0.71923
C         24.54681        19.01532         0.36487
C         25.85543         1.46716         0.64561
C         25.88032         3.59538         1.22946
C         27.16028         1.04911         0.22299
C         27.10020         4.19108         0.90577
C         25.87393         6.33495         0.86731
C         25.89734         7.77514         0.88753
C         27.08351         5.60676         0.83271
C         27.14880         8.45292         0.94291
C         25.92366        10.65556         0.87463
C         25.95565        12.13962         1.08137
C         27.16715         9.89879         1.16929
C         27.25397        12.82392         1.41988
C         25.94059        15.01942         1.27094
C         25.84545        16.28520         0.71122
C         27.23714        14.34518         1.41440
C         27.01803        17.10817         0.43810
C         25.83793        19.39449         0.63204
C         27.00022        18.55087         0.31426
C         28.30980         1.86068         0.36439
C         28.26053         3.39626         0.29318
C         29.57112         1.25705         0.17046
C         29.60787         4.06168         0.47700
C         28.37415         6.31119         0.91671
C         28.37880         7.78598         0.85314
C         29.63428         5.52107         0.73931
C         29.59905         8.50118         0.70776
C         28.48920        10.65843         1.13382
C         28.48314        12.12177         0.98589
C         29.67435         9.89945         0.72950
C         29.62628        12.77847         0.58056
C         28.45491        15.06308         0.91145
C         28.28220        16.44392         0.37434
C         29.67930        14.26100         0.53140
C         29.42193        17.09438        -0.10224
C         28.20847        19.21123         0.05857
C         29.41438        18.51622        -0.24561
C         30.80848         1.95661         0.11174
C         30.79931         3.41085         0.24584
C         32.02914         1.28445        -0.02717
C         32.07297         4.12791         0.15413
C         30.83463         6.26999         0.26459
C         30.80573         7.75625         0.28401
C         32.11725         5.53721         0.19512
C         32.09804         8.49384         0.36101
C         30.82814        10.62846         0.26343
C         30.77651        12.02841         0.15275
C         32.07184         9.93015         0.03263
C         31.89182        12.73052        -0.49709
C         30.77058        14.90708        -0.23511
C         30.56690        16.32196        -0.70973
C         31.91616        14.21031        -0.54584
C         31.85340        17.07886        -0.80306
C         30.61976        19.18809        -0.54965
C         31.84887        18.48510        -0.76512
C         33.27893         1.97548        -0.10707
C         33.28246         3.41532        -0.05259
C         34.50359         1.29564        -0.22671
C         34.50411         4.12804        -0.24883
C         33.32197         6.24962         0.01362
C         33.36577         7.72438         0.17113
C         34.52008         5.56155        -0.23905
C         34.54805         8.46805        -0.29784
C         33.24520        10.57092        -0.34128
C         33.18178        11.97973        -0.75981
C         34.50016         9.86655        -0.47889
C         34.43508        12.73352        -0.97707
C         33.13407        14.85945        -1.00061
C         33.04780        16.32966        -1.20109
C         34.35091        14.18207        -1.14191
C         34.35048        17.11728        -1.29009
C         33.09017        19.20348        -0.81931
C         34.31508        18.55320        -0.94493
C         35.73212         1.99383        -0.36840
C         35.70766         3.41054        -0.46489
C         36.99433         1.30831        -0.27070
C         36.93273         4.15554        -0.76103
C         35.74924         6.30330        -0.43906
C         35.74113         7.73968        -0.51108
C         36.95763         5.61986        -0.62074
C         36.94345         8.45418        -0.78036
C         35.67926        10.58120        -0.89623
C         35.62008        12.02459        -1.10472
C         36.88970         9.85895        -1.01548
C         36.79145        12.74880        -1.75515
C         35.61910        14.91596        -1.30635
C         35.62199        16.37762        -1.20408
C         36.81067        14.23070        -1.41291
C         36.79038        17.10772        -1.12241
C         35.55129        19.21296        -0.73358
C         36.77347        18.53179        -0.82451
C         38.20392         1.98038        -0.25634
C         38.26375         3.40174        -0.64018
C         39.44404         1.35531         0.12609
C         39.46217         4.19710        -0.33484
C         38.19884         6.32975        -0.64897
C         38.19176         7.74338        -0.72477
C         39.44471         5.61427        -0.45282
C         39.42843         8.48027        -0.64959
C         38.16952        10.55706        -1.28080
C         38.14429        12.02918        -1.56585
C         39.42721         9.89425        -0.82588
C         39.33603        12.78480        -1.04359
C         38.12729        14.94909        -1.66439
C         38.09094        16.45522        -1.38680
C         39.29684        14.27414        -0.95848
C         39.34418        17.18186        -0.97489
C         37.98265        19.20129        -0.48013
C         39.21980        18.55720        -0.42716
C         40.59487         2.08040         0.25848
C         40.62781         3.51416         0.07250
C         41.81101         4.26038         0.29372
C         40.64790         6.34443        -0.23984
C         40.64472         7.79026        -0.37992
C         41.82123         5.63249         0.11962
C         41.83327         8.54761        -0.28341
C         40.62735        10.61604        -0.74513
C         40.68811        12.08338        -1.15020
C         41.82322         9.91945        -0.46969
C         41.75584        12.87467        -0.44195
C         40.56591        15.01612        -0.72195
C         40.58104        16.41310        -0.67103
C         41.70140        14.22172        -0.31483
C         41.71640        17.16988        -0.26304
C         40.39103        19.20271         0.02233
C         41.61639        18.52340         0.05129
O         14.63336        18.26344         1.66127
O         33.59556        16.77623        -2.50141
O          4.43306        10.29533         0.89435
O         37.66475         3.68479        -1.94379
O         24.79642        13.36402         2.79666
O         16.72220         3.90176        -1.30468
O         10.41856        11.32334         1.56592
O          8.06731        16.79720        -1.80121
O          8.09894         3.81002        -2.05594
O         27.38480        13.57636         2.64704
O         26.03358        11.60414        -0.26950
O         38.89905        17.16613        -2.38424
O         25.91038         2.32164         1.77106
O         22.71862        14.77662         2.98323
O          2.85298        16.76312         1.18587
O         19.93843        14.67002         2.67738
O          3.62432         2.58720         0.85650
O         29.19289         5.85324         2.09599
O         11.30708        16.94326         1.81571
O         30.59523         7.03349        -0.98688
O         27.85184        10.25873         2.40731
O         38.97493        13.43203         0.21723
O         24.42354        17.85069        -0.42958
O         32.91611         8.15326         1.52702
O         18.61517        11.50155        -0.84867
O          8.47947        12.02925        -2.27222
O         38.39651        11.10788        -2.67029
O         23.42072        11.69984        -0.32345
O         29.57129        14.94341         1.84951
O         32.19625        12.18540        -1.83706
O         12.22235        12.89237         2.31253
H         11.59865        12.19299         2.63006
O         41.03066        12.08278        -2.56619
H         40.28666        11.63939        -3.03891
O         22.21359        17.50181         2.81639
H         22.21115        16.61705         3.26178
O         30.12520        16.15054        -2.12381
H         30.92308        15.96187        -2.66572
O          6.10792        10.71705        -2.36748
H          6.96046        11.19963        -2.61586
O         36.48572        12.71043        -3.17828
H         36.97901        11.94338        -3.55556
O         38.41941        14.75294        -3.07005
H         37.79072        15.29084        -3.59529
O         23.48286         7.82534        -1.06034
H         23.47737         8.76507        -1.34455
O         27.98621         3.61259        -1.15117
H         28.69435         3.16137        -1.65985
O         10.71583        12.91547        -1.72601
H         10.03753        12.67471        -2.43070
H          0.32130         1.49636        -1.16070
H          0.26024         3.91808        -0.85383
H          2.44164         0.23206        -1.18148
H          0.23699         5.83783        -0.56228
H          0.23243         8.26637        -0.49949
H          0.23371        10.18393        -0.81182
H          0.24700        12.60034        -0.73827
H          0.28853        14.52718        -0.96905
H          0.26863        16.96196        -0.90476
H          1.49409        19.19367        -0.53644
H          5.00034         0.20949        -0.92892
H          3.64442        20.37101        -0.41032
H          7.40205         0.23890        -0.51037
H          6.05290        20.39799        -0.19538
H          9.86881         0.25607        -0.10508
H          8.57873        20.39496        -0.21449
H         12.30435         0.28477         0.10234
H         11.05609        20.35110        -0.31420
H         14.74601         0.27629         0.32320
H         13.41026        20.19654        -0.80287
H         17.25611         0.28474         0.32516
H         16.23860        20.25427        -0.49288
H         19.71375         0.28832         0.32433
H         18.46026        20.27495         0.16652
H         22.15992         0.31657         0.17798
H         20.80447        20.34834         0.41497
H         24.42387         0.47868        -0.60374
H         23.09384        20.61207         0.77258
H         27.29153         0.03741        -0.19481
H         26.03874        20.35734         1.12492
H         29.60632         0.15833         0.09874
H         28.21625        20.31115         0.03139
H         32.03008         0.18567        -0.08913
H         30.63163        20.28780        -0.56828
H         34.51428         0.19569        -0.20296
H         33.07571        20.28917        -0.64313
H         36.97937         0.22944        -0.05251
H         35.54874        20.28013        -0.46709
H         39.44638         0.27348         0.32486
H         37.91944        20.25622        -0.17281
H         41.52757         1.57831         0.55418
H         42.72837         3.73795         0.60039
H         42.75992         6.17516         0.29285
H         42.79393         8.05155        -0.09346
H         42.77781        10.46032        -0.43515
H         42.65934        12.35353        -0.09645
H         42.56416        14.73637         0.13224
H         42.68918        16.67435        -0.14461
H         40.33614        20.25029         0.35120
H         42.51642        19.06010         0.38262
