         324
 CSIRO Nanostructure Databank - Neutral Graphene Oxide Data Set
C          1.30024         3.32829         0.18115
C          0.08968         3.98792         0.35879
C          1.14805         6.13176        -0.10450
C          0.00894         5.37925         0.21431
C          1.05846         7.57589        -0.45480
C         -0.10889         8.37618        -0.03229
C          1.07608        10.53720        -0.26269
C         -0.07325         9.73212         0.06075
C          1.04882        11.93100        -0.17042
C         -0.10941        12.70750         0.16749
C          1.04737        14.89204         0.16176
C         -0.11830        14.08669         0.29765
C          1.10848        16.29747         0.34447
C         -0.05061        17.07962         0.63833
C          1.19910        19.19680         0.46470
C         -0.00677        18.45191         0.68515
C          1.21594        20.63587         0.50674
C          0.02810        21.38668         0.73123
C          1.24258        23.50460         0.60186
C          0.03876        22.76201         0.77206
C          1.25676        24.93267         0.69876
C          0.10281        25.71790         0.88753
C          1.37352        27.82101         0.73705
C          0.15624        27.10721         0.95323
C          1.39920        29.26275         0.71778
C          3.72717         3.35836        -0.25762
C          2.48054         4.05436        -0.09461
C          3.61500         6.24757        -0.38124
C          2.40202         5.47794        -0.22951
C          3.61392         7.62797        -0.57782
C          2.32515         8.33563        -0.79558
C          3.59300        10.54861        -0.54936
C          2.28909         9.87512        -0.92592
C          3.59209        11.94397        -0.37113
C          2.29705        12.68497        -0.44751
C          3.55388        14.87073         0.08199
C          2.27848        14.17600        -0.24814
C          3.54672        16.33550        -0.04079
C          2.35967        17.03102         0.16418
C          3.64281        19.18370         0.06432
C          2.39668        18.47725         0.21583
C          3.66185        20.62018         0.07166
C          2.43677        21.35353         0.29760
C          3.66180        23.49592        -0.00376
C          2.44874        22.77305         0.33774
C          3.67036        24.88500         0.03693
C          2.59543        25.62247         0.78478
C          3.76895        27.80863         0.20726
C          2.56104        27.10763         0.50665
C          3.79562        29.25864         0.23894
C          2.56215        29.94953         0.50997
C          6.19759         3.37876        -0.46016
C          4.93366         4.03729        -0.35244
C          6.16386         6.27711        -0.38620
C          4.88485         5.51305        -0.20205
C          6.06632         7.70449        -0.71984
C          4.85379         8.37859        -0.66514
C          6.03269        10.56078        -0.49341
C          4.82411         9.84256        -0.61714
C          6.04564        11.96397        -0.24886
C          4.80330        12.64349        -0.19236
C          6.10430        14.80819        -0.06295
C          4.83126        14.09453         0.06061
C          6.12002        16.23851        -0.32234
C          4.79772        17.02881        -0.32732
C          6.11761        19.12965        -0.20990
C          4.86028        18.47815        -0.13765
C          6.11637        20.57352        -0.26752
C          4.87411        21.30334        -0.17856
C          6.04918        23.41443        -0.64084
C          4.87117        22.74612        -0.32048
C          6.06138        24.87621        -0.80716
C          4.80330        25.65749        -0.46204
C          6.15163        27.80565        -0.43836
C          4.92443        27.10734        -0.17166
C          6.19930        29.25882        -0.30658
C          4.98369        29.94352        -0.00632
C          8.67706         3.43346        -0.62634
C          7.41068         4.05691        -0.67279
C          8.63979         6.26729        -1.06854
C          7.36381         5.52454        -0.87818
C          8.61633         7.66841        -0.47265
C          7.34658         8.40547        -0.88338
C          8.51145        10.49920         0.04466
C          7.32804         9.88360        -0.66923
C          8.59494        11.99314        -0.30374
C          7.27705        12.68821        -0.10288
C          8.57577        14.83777         0.04314
C          7.31141        14.09919        -0.01963
C          8.57939        16.26002        -0.01041
C          7.38129        16.97681        -0.14919
C          8.62181        19.09033        -0.14230
C          7.35818        18.40018        -0.20790
C          8.60416        20.52965        -0.44542
C          7.32484        21.24209        -0.49233
C          8.62092        23.42947        -0.69715
C          7.30647        22.67069        -0.78820
C          8.60976        24.91385        -0.52269
C          7.32781        25.64230        -0.61490
C          8.58593        27.81310        -0.98465
C          7.31146        27.10888        -0.77103
C          8.64778        29.26527        -0.70015
C          7.41989        29.93726        -0.42752
C         11.09479         3.31087        -0.55393
C          9.94022         4.05983        -0.85819
C         11.17744         6.39081        -1.41816
C          9.93929         5.50932        -1.28060
C         11.10539         7.86297        -1.10711
C          9.84246         8.50580        -0.72358
C         11.00457        10.54862         0.02070
C          9.82903         9.83527        -0.28417
C         10.99534        11.90205         0.58217
C          9.71945        12.69806         0.43460
C         10.98189        14.86600         0.68068
C          9.77523        14.16235         0.33291
C         11.05785        16.25311         0.57635
C          9.91769        16.95235        -0.13147
C         11.05769        19.13342         0.43511
C          9.83884        18.43828         0.09144
C         10.99922        20.61443         0.57831
C          9.89086        21.30872        -0.14776
C         11.03104        23.62255         0.34313
C          9.75652        22.77187        -0.00481
C         11.07376        24.97073        -0.16314
C          9.92425        25.52426        -0.96008
C         11.15876        27.75337        -0.75839
C          9.89386        27.04373        -1.02901
C         11.13657        29.19544        -0.83428
C          9.88394        29.90293        -0.75848
C         13.62882         3.36683        -0.18568
C         12.45040         3.68287        -0.83600
C         13.65667         6.33720        -0.78683
C         12.52103         5.78978        -1.35036
C         13.62589         7.74049        -0.41699
C         12.37244         8.51121        -0.58383
C         13.48648        10.49760         0.64029
C         12.24907         9.79145         0.16761
C         13.47317        11.97813         0.79016
C         12.26266        12.63427         0.78809
C         13.46052        14.84811         1.31237
C         12.16021        14.07976         1.12081
C         13.44621        16.32504         1.20127
C         12.26599        17.00251         0.88956
C         13.40134        19.26006         1.27810
C         12.21189        18.46798         0.84310
C         13.51436        20.71977         1.04827
C         12.23150        21.43746         0.93415
C         13.48373        23.55201         0.69693
C         12.29773        22.88802         0.61899
C         13.48510        25.01009         0.41089
C         12.40489        25.54415        -0.51233
C         13.59168        27.75805        -0.53444
C         12.34606        27.06135        -0.53936
C         13.59339        29.15542        -0.88279
C         12.36168        29.86305        -0.94423
C         16.09360         3.50060        -0.08755
C         14.86175         4.13296        -0.34353
C         16.08262         6.27529        -0.37575
C         14.87215         5.56148        -0.54854
C         16.06195         7.75472        -0.40491
C         14.77580         8.40882        -0.09572
C         16.05152        10.55441         0.54242
C         14.78371         9.76589         0.48412
C         15.97256        12.01669         0.70165
C         14.73929        12.69949         0.89405
C         15.95152        14.80407         1.21250
C         14.72824        14.11517         1.08763
C         16.04050        16.28524         1.45842
C         14.71890        17.02637         1.49669
C         15.96913        19.26025         1.22260
C         14.71754        18.52711         1.47661
C         15.96745        20.66164         1.22586
C         14.72425        21.39514         1.15785
C         16.03484        23.65551         1.00246
C         14.71794        22.92391         1.34296
C         16.03373        24.97047         0.60852
C         14.78269        25.74343         0.38530
C         16.03369        27.72664        -0.52570
C         14.81039        27.07683        -0.27615
C         16.02835        29.05945        -1.07016
C         14.82615        29.77574        -1.17192
C         18.57284         3.51961         0.11394
C         17.32025         4.19865        -0.06472
C         18.56161         6.36006        -0.06591
C         17.32036         5.62188        -0.17952
C         18.59916         7.78004        -0.08227
C         17.34725         8.53313        -0.24566
C         18.53243        10.65793         0.27979
C         17.33091         9.94043         0.17526
C         18.49950        12.08688         0.51653
C         17.20695        12.69350         0.82165
C         18.80155        15.11124         0.85286
C         17.10011        14.01000         1.31887
C         18.46175        16.45556         0.56391
C         17.24623        17.09040         1.03374
C         18.36649        19.23727         0.62016
C         17.16398        18.48990         0.92817
C         18.47657        20.57345         1.10862
C         17.26472        21.39150         1.41873
C         18.59985        23.72650         1.26006
C         17.30830        22.94982         1.39509
C         18.55875        25.19862         0.97971
C         17.26354        25.82084         0.57457
C         18.47346        27.71952        -0.57350
C         17.28139        27.09454        -0.20611
C         18.45958        28.97882        -1.26290
C         17.26931        29.64377        -1.46045
C         19.75269         4.21401         0.18135
C         20.99314         6.37460         0.22205
C         19.78040         5.64580         0.10674
C         21.00999         7.75733         0.20021
C         19.80562         8.50177         0.06496
C         20.94320        10.74586        -0.03360
C         19.78220         9.96361         0.08921
C         20.87589        12.13793        -0.02433
C         19.68002        12.84407         0.25468
C         20.51484        15.02969        -0.79270
C         19.68827        14.31657         0.11674
C         20.45889        16.41850        -0.84580
C         19.45450        17.16121        -0.16829
C         20.74103        19.26628        -0.01799
C         19.49925        18.59066         0.05011
C         20.90594        20.43298         0.70870
C         19.78569        21.01952         1.32569
C         21.08230        23.96850         1.41982
C         19.83127        23.27206         1.65699
C         21.11059        25.18142         0.83377
C         19.84876        25.92564         0.66199
C         20.97338        27.62172        -0.96324
C         19.79884        27.18250        -0.16584
C         20.93463        28.74600        -1.68920
C         19.74368        29.66162        -1.68364
O          5.42378        16.57567        -1.58631
O          7.74570         6.04482        -2.19802
O          9.25360        27.47494        -2.27997
O          2.22345        13.60433        -1.59754
O          9.62779        20.85047        -1.48453
O         16.70515         8.35552        -1.59237
O          5.19738        25.36874        -1.86382
O         12.64438         9.74906         1.59019
O         11.97398         8.66611        -1.98292
O         12.67131        14.36759         2.45756
O         10.04796        12.13283         1.73939
O         10.45599         5.88898        -2.58896
O         13.92677        18.97465         2.62096
O          9.95806        23.30082         1.31417
O          7.53610         9.32880        -2.00530
O         12.60374         4.54664        -1.95570
O          4.13649        14.43818         1.37290
O         20.01458        22.02946         2.26134
O         13.86470        25.80550         1.55753
O         17.22864        22.19230         2.64928
O          5.69646         5.95526         0.95758
O          8.16840        22.99976        -1.98412
O          1.49421         7.75389        -1.86187
O         19.97323        27.25031         1.29518
O         17.77447        25.95125         1.96188
O          7.99591        25.34161         0.71497
O         18.20154        14.54653         1.98078
O         15.52754         9.81882         1.75818
O         11.22667        21.07051         1.94029
O         15.41813        16.60908         2.73445
O          8.22515        10.28075         1.44807
H          8.88146        10.82031         1.96513
O         10.27707        16.82032        -1.57156
H          9.55995        17.24460        -2.09135
O          8.94365        12.08656        -1.71122
H          8.33491        11.51216        -2.22578
O         14.54581        23.12501         2.76818
H         15.37294        22.81418         3.20584
O          2.98722        25.52099         2.21801
H          2.28693        25.97034         2.73848
O          2.13773        10.16894        -2.34287
H          1.60371         9.43253        -2.72490
O          8.55584         7.46431         0.96999
H          8.43164         8.34945         1.40006
O         10.13938        25.06540        -2.33682
H          9.70619        25.73520        -2.92138
O         12.80790        25.08723        -1.84852
H         11.98278        25.06974        -2.39851
O         20.01351        30.76285        -0.79222
H         20.10761        30.39825         0.11260
H          1.35201         2.23417         0.27461
H         -0.81918         3.41463         0.58782
H         -0.96877         5.86871         0.31942
H         -1.02476         7.85026         0.27233
H         -0.97415        10.24317         0.43085
H         -1.06481        12.18445         0.31682
H         -1.07462        14.56878         0.54811
H         -1.01194        16.57518         0.80834
H         -0.94022        18.98824         0.90046
H         -0.92856        20.87002         0.88151
H         -0.90557        23.29019         0.96002
H         -0.88194        25.23496         0.96186
H         -0.77109        27.67702         1.10770
H          0.46054        29.80496         0.90362
H          3.71321         2.25826        -0.28416
H          2.56853        31.04911         0.53061
H          6.21405         2.28086        -0.37615
H          4.99019        31.04335         0.03078
H          8.69959         2.35931        -0.38191
H          7.44126        31.02590        -0.26619
H         10.93583         2.35390        -0.03074
H          9.92128        30.99937        -0.66646
H         13.63603         2.55140         0.55359
H         12.37810        30.95151        -1.10277
H         16.10583         2.41264         0.07635
H         14.84586        30.82463        -1.50193
H         18.57177         2.42263         0.19254
H         17.27003        30.64369        -1.91824
H         20.70299         3.67651         0.31444
H         21.93531         5.82102         0.34583
H         21.96787         8.28365         0.31289
H         21.91751        10.26499        -0.19672
H         21.79665        12.71140        -0.20191
H         21.24681        14.49191        -1.41145
H         21.18717        16.95366        -1.47095
H         21.60793        18.78065        -0.48546
H         21.89846        20.88098         0.84624
H         22.00957        23.43808         1.67552
H         22.06220        25.69651         0.64547
H         21.88757        27.00974        -0.93932
H         21.82179        29.06581        -2.25647
H         19.60865        30.10764        -2.70302
