         618
 CSIRO Nanostructure Databank - Neutral Graphene Oxide Data Set
C          6.14889        31.68298        -0.64702
C          6.09642        33.00747        -0.33341
C          8.59157        27.38377        -1.53348
C          8.56336        28.74195        -0.86647
C          7.37320        29.58170        -1.01980
C          8.62606        31.57391        -0.29869
C          7.37701        30.90548        -0.63798
C          8.54696        33.00630         0.10298
C          7.28372        33.76469        -0.00765
C          8.45512        35.95891         0.15966
C          7.26124        35.13462         0.16801
C          8.40982        37.34749         0.31484
C         11.09637        23.03309        -1.78771
C         11.15799        24.54539        -1.88533
C          9.92170        25.30670        -1.61449
C         11.17363        27.39810        -1.28853
C          9.92192        26.65784        -1.44808
C         11.15177        28.77297        -0.95304
C          9.88434        29.46099        -0.60391
C         11.15009        31.65895        -0.19617
C          9.83909        30.92572        -0.42680
C         11.01497        33.15694        -0.49302
C          9.82791        33.83395         0.05750
C         10.88978        36.03457        -0.25102
C          9.71592        35.29976        -0.08247
C         10.89270        37.49202        -0.33267
C          9.54704        38.21529        -0.01404
C         10.89177        40.30799         0.25303
C          9.68139        39.61387         0.39412
C         10.93849        41.73240         0.40020
C         13.56523        18.80641        -1.01261
C         13.53775        20.22224        -0.97597
C         12.39498        20.95438        -1.37050
C         13.60683        23.06155        -1.20744
C         12.41123        22.35355        -1.45441
C         13.78305        24.49127        -1.69776
C         12.46762        25.28190        -1.79736
C         13.63577        27.38109        -1.12696
C         12.41754        26.70808        -1.40204
C         13.62381        28.77842        -0.91332
C         12.37254        29.51911        -0.87987
C         13.72582        31.55477        -0.90452
C         12.35272        30.92660        -0.75797
C         13.87899        33.03051        -0.78532
C         12.01142        34.01168        -0.91110
C         13.38895        35.98565        -0.20383
C         12.12719        35.36028        -0.44515
C         13.35100        37.40592        -0.02697
C         12.17081        38.17624        -0.12028
C         13.36144        40.31988         0.14818
C         12.15120        39.60115         0.04031
C         13.38396        41.72922         0.30036
C         12.13948        42.45257         0.35342
C         13.40525        44.57262         0.26468
C         12.19841        43.88419         0.37047
C         13.44901        46.01120         0.22035
C         15.88843        14.52441        -0.55636
C         15.65138        15.82314         0.17502
C         14.75023        16.69006        -0.67812
C         15.68399        18.74767         0.39278
C         14.66251        18.05073        -0.52974
C         15.78804        20.23898         0.04338
C         14.69673        20.94940        -0.53699
C         15.94314        23.08497        -0.34302
C         14.74718        22.36501        -0.71291
C         16.03952        24.50716        -0.51180
C         14.90082        25.24734        -1.00574
C         16.13805        27.37357        -0.75902
C         14.87709        26.63287        -0.98195
C         16.05712        28.79525        -0.41473
C         14.85133        29.42632        -0.52596
C         15.77082        31.55060         0.67383
C         14.70918        30.81550        -0.05146
C         15.60657        33.04682         0.98722
C         14.68774        33.78128         0.01197
C         15.72956        35.93459         0.64391
C         14.61924        35.25180         0.08456
C         15.80905        37.36248         0.59312
C         14.64827        38.08719         0.04588
C         15.85260        40.27554         0.55759
C         14.64501        39.60232         0.07297
C         15.83215        41.69251         0.54844
C         14.62832        42.43154         0.34073
C         15.88960        44.55997         0.04128
C         14.66350        43.86427         0.22598
C         15.89517        46.03091        -0.08153
C         14.61637        46.71855         0.07317
C         15.72851        49.03863         0.21882
C         14.47451        48.23625        -0.06876
C         15.72487        50.36615         0.47718
C         18.65344        10.84104        -2.26176
C         18.52883        12.08517        -1.53511
C         17.28395        12.70597        -1.39504
C         18.15760        14.19706         0.44540
C         17.10362        13.88931        -0.60962
C         18.15641        15.68307         0.91244
C         17.00568        16.51381         0.39130
C         18.25571        18.73338         0.91046
C         17.05713        18.00157         0.33756
C         18.08044        20.22620         0.99523
C         16.91625        20.94661         0.42230
C         18.17508        23.09239         0.71773
C         17.01575        22.37470         0.25523
C         18.26893        24.48308         0.55917
C         17.21846        25.17467        -0.08253
C         18.49035        27.35941         0.34902
C         17.38449        26.61617        -0.31927
C         18.55007        28.83197         0.19977
C         17.27484        29.57863        -0.06943
C         18.27209        31.62274         1.21819
C         17.14247        30.96500         0.51631
C         18.09322        33.04397         1.51135
C         16.93320        33.73533         1.18775
C         18.15100        35.93572         1.64915
C         16.84025        35.19306         1.32138
C         18.23211        37.36567         1.18814
C         16.97338        38.09656         0.90558
C         18.25362        40.26057         1.10551
C         17.02259        39.52874         0.82922
C         18.27741        41.69375         0.87556
C         17.06953        42.39434         0.59830
C         18.36961        44.19499        -0.22006
C         17.08548        43.75088         0.15469
C         18.36771        46.36122        -0.47789
C         17.03399        46.85251        -0.22763
C         18.28903        49.05700         0.12286
C         16.99373        48.32800        -0.08400
C         18.27457        50.47387         0.55375
C         16.96091        51.18917         0.80667
C         18.17174        53.32397         0.14454
C         16.99179        52.60692         0.27357
C         18.26287        54.71077        -0.09629
C         21.06747         6.69622        -2.54741
C         21.11706         8.03945        -2.69516
C         19.91771         8.85803        -3.10467
C         21.06944        10.78961        -1.87456
C         19.84396        10.17922        -2.36513
C         20.98390        12.08207        -1.19956
C         19.69460        12.63457        -0.91956
C         20.81006        14.51055         0.45502
C         19.55973        13.68423         0.09222
C         20.73547        15.85580         1.06607
C         19.38539        16.41854         1.42227
C         20.57745        18.59048         1.96577
C         19.21806        17.91433         1.86268
C         20.63347        19.87096         2.39679
C         18.89549        21.10014         1.85392
C         20.36267        23.07889         2.09630
C         19.15353        22.39781         1.53023
C         20.49772        24.54528         1.85446
C         19.59457        25.18482         0.80789
C         20.69855        27.39053         1.47082
C         19.52636        26.69291         0.94925
C         20.75693        28.78206         1.53078
C         19.67956        29.56923         0.88928
C         20.60202        31.60004         2.02720
C         19.49529        30.97199         1.33142
C         20.31951        32.87977         2.48375
C         19.26701        33.75363         2.00052
C         20.69432        35.91927         1.84073
C         19.37244        35.14781         1.93292
C         20.54723        37.40923         2.32761
C         19.48050        38.14265         1.51665
C         20.61658        40.40497         1.86225
C         19.40397        39.61779         1.54870
C         20.73012        41.75934         1.29578
C         19.51978        42.38969         0.84951
C         20.81889        44.49966         0.18790
C         19.56312        43.68959         0.28490
C         20.71945        46.01601         0.41230
C         19.54332        46.86632         0.03465
C         20.69769        48.99692         0.97877
C         19.65185        48.36752         0.08331
C         20.73112        50.49106         0.88517
C         19.44753        51.17112         0.59106
C         20.74736        53.37134         0.27079
C         19.50049        52.55548        -0.01328
C         20.73859        54.68279        -0.38479
C         19.48137        55.37770        -0.44714
C         20.71092        57.42645        -1.04312
C         19.50167        56.75695        -0.73026
C         20.73051        58.84192        -1.19952
C         23.36236         3.77098        -1.86288
C         22.20623         4.52347        -2.18550
C         23.49076         6.59163        -1.97370
C         22.25447         5.91032        -2.24918
C         23.56044         7.99817        -2.02816
C         22.42370         8.78799        -2.64343
C         23.54791        10.86778        -1.76734
C         22.28394        10.14755        -1.99650
C         23.47446        12.31887        -1.27192
C         22.14391        12.80120        -0.88087
C         23.33823        14.89574         0.05188
C         22.05054        14.14858        -0.29531
C         23.25163        16.05250         0.95408
C         21.93775        16.54335         1.27513
C         23.15247        18.61602         2.13676
C         21.87036        17.85854         1.92676
C         23.09801        20.09580         2.03926
C         21.75872        20.76530         2.08154
C         22.91712        22.96965         2.38370
C         21.65095        22.26734         2.02937
C         23.04439        24.41295         2.02702
C         21.81807        25.22906         1.95284
C         23.15015        27.30212         1.88377
C         21.87677        26.60225         1.81315
C         23.13462        28.73674         2.06807
C         21.94593        29.48555         1.99222
C         23.12711        31.65320         2.40176
C         21.91611        30.93607         2.20899
C         23.27534        33.10110         2.48761
C         22.13866        33.96415         2.78032
C         23.18639        35.93870         1.88406
C         21.96720        35.24869         2.34359
C         23.18915        37.41447         2.13617
C         21.90462        38.15635         2.31626
C         23.17435        40.37607         1.82264
C         21.93093        39.66451         2.16862
C         23.17396        41.74666         1.57697
C         21.95288        42.42576         1.24344
C         23.26527        44.59028         1.07459
C         22.04804        43.81476         0.71734
C         23.21511        46.03901         1.20090
C         21.91301        46.74392         0.99967
C         23.27285        48.98627         0.88533
C         21.98627        48.26006         1.15273
C         23.28147        50.38081         0.57070
C         22.06003        51.19699         0.77889
C         23.26620        53.23670        -0.20620
C         22.06819        52.66259         0.43485
C         23.18558        54.52523        -0.75626
C         21.95218        55.28830        -0.74456
C         23.11493        57.32106        -1.57408
C         21.93688        56.67066        -1.13195
C         22.99966        58.65836        -1.95008
C         21.90746        59.49462        -1.58808
C         23.34636        61.50990        -1.25639
C         22.12435        60.92462        -1.52329
C         24.55422         4.39718        -1.57424
C         25.84583         6.48842        -1.29198
C         24.65030         5.82447        -1.60286
C         25.90437         7.90072        -1.25731
C         24.73406         8.66912        -1.60793
C         25.91909        10.74919        -1.00838
C         24.77441        10.09502        -1.48496
C         25.92058        12.16559        -0.69596
C         24.68965        12.92149        -0.68985
C         25.80322        14.83976         0.37680
C         24.63098        14.19326        -0.09204
C         25.75607        16.10907         0.99801
C         24.47436        16.72070         1.29712
C         25.67114        18.77223         2.11391
C         24.47847        18.03271         1.84035
C         25.63301        20.16501         2.54380
C         24.32981        20.87538         2.37476
C         25.93839        23.20619         2.84236
C         23.98944        22.23775         2.82778
C         25.70856        24.34898         2.05797
C         24.38997        25.08529         1.80223
C         25.56179        27.36298         1.53625
C         24.35776        26.59229         1.76648
C         25.63830        28.74102         1.83095
C         24.42108        29.41574         2.30889
C         25.68497        31.61865         1.95426
C         24.43792        30.93537         2.40758
C         25.70568        33.03063         1.89379
C         24.48705        33.73713         2.20555
C         25.74903        35.95269         1.95410
C         24.47158        35.18804         1.95714
C         25.60500        37.29335         1.36100
C         24.46539        38.14060         1.80916
C         25.59525        40.36810         1.07587
C         24.45536        39.63750         1.69218
C         25.77689        41.77613         1.40349
C         24.45387        42.51401         1.57372
C         25.73969        44.64148         1.07265
C         24.47325        43.94892         1.25467
C         25.75053        46.03457         0.87531
C         24.53126        46.81928         1.13533
C         25.68471        48.88562         0.38171
C         24.47369        48.25208         0.76930
C         25.67249        50.26491         0.02559
C         24.45559        51.02220         0.09374
C         25.65477        53.04831        -0.74743
C         24.45464        52.43016        -0.30306
C         25.66596        54.39209        -1.18046
C         24.39125        55.09978        -1.38032
C         25.72958        57.28226        -1.63012
C         24.40773        56.60095        -1.76773
C         25.90265        58.65368        -1.37304
C         24.89610        59.62420        -1.65515
C         24.60588        60.84977        -1.07214
C         27.08796         8.57996        -0.89422
C         28.30118        10.64322        -0.35178
C         27.11940         9.98114        -0.76341
C         28.31676        12.02947        -0.11395
C         27.10121        12.77827        -0.25864
C         28.28721        14.78518         0.73830
C         27.12732        14.26922        -0.05864
C         28.23815        16.09020         1.23152
C         26.97249        16.79210         1.35138
C         28.15540        18.77796         2.29891
C         26.94329        18.11206         1.88641
C         28.00306        20.02286         2.89826
C         26.83785        20.85383         2.80747
C         28.23175        22.92820         2.13430
C         27.04877        22.32609         2.69866
C         28.10957        24.20871         1.50698
C         26.80907        24.67278         1.25820
C         27.98726        27.32601         1.11130
C         26.71519        26.77866         0.96853
C         28.02083        28.72540         1.27944
C         26.83424        29.44807         1.54772
C         27.96419        31.59835         1.01219
C         26.83997        30.90510         1.53318
C         28.00975        33.01593         1.01218
C         26.88758        33.71946         1.49891
C         28.04698        35.88186         0.82276
C         26.97698        35.18651         1.56406
C         27.89482        37.19377         0.37128
C         26.54765        37.69219         0.45996
C         27.84857        40.30687         0.04239
C         26.50887        39.82255         0.22571
C         27.98857        41.72531         0.22990
C         26.92789        42.47395         0.79988
C         28.11925        44.56071         0.31839
C         26.94011        43.88959         0.77817
C         28.13679        45.98404         0.22275
C         26.93843        46.71557         0.46708
C         28.13775        48.81596         0.06039
C         26.91331        48.13623         0.29706
C         28.12017        50.23569        -0.12704
C         26.91446        50.90606        -0.28230
C         28.18823        52.95688        -1.03805
C         26.87648        52.20627        -1.03577
C         28.17432        54.31069        -1.70395
C         26.87660        55.07000        -1.50426
C         26.89179        56.45267        -1.62910
C         29.50653        12.68108         0.31863
C         30.72492        14.65288         1.11410
C         29.51871        14.03284         0.72004
C         30.78689        16.03011         1.44274
C         29.52609        16.86318         1.34781
C         30.87887        18.80163         2.32545
C         29.50496        18.10513         2.23000
C         30.96702        20.26813         2.10232
C         29.87525        21.09236         2.53618
C         30.48321        22.90145         1.01389
C         29.51173        22.28040         1.94454
C         30.48103        24.38176         0.97303
C         29.28277        25.02252         1.14082
C         30.55019        27.29402         1.09022
C         29.24351        26.52401         1.20033
C         30.50866        28.71286         0.67240
C         29.20646        29.38800         0.70970
C         30.38647        31.55730         0.18072
C         29.12267        30.86415         0.45428
C         30.20599        32.98152        -0.29308
C         29.15645        33.73508         0.48670
C         30.31820        35.88807        -0.08528
C         29.17585        35.12308         0.40166
C         30.23731        37.31982        -0.33788
C         28.98773        38.00107        -0.18360
C         30.06820        40.15633        -0.92341
C         28.91319        39.44489        -0.32962
C         30.21162        41.61673        -0.78859
C         29.17912        42.39168        -0.20852
C         30.44243        44.49120        -0.57143
C         29.25696        43.81605        -0.11671
C         30.55186        45.92620        -0.42386
C         29.36137        46.66492        -0.10615
C         30.59292        48.80379        -0.34175
C         29.35660        48.08711        -0.09926
C         30.61054        50.18935        -0.41094
C         29.41096        51.01036        -0.03692
C         29.34448        52.36980        -0.68136
C         32.00732        16.61819         1.69427
C         33.17776        18.71449         1.15827
C         32.20155        18.04953         2.09848
C         33.10010        20.06067         0.82254
C         31.92964        20.80723         1.26477
C         32.97067        22.92584         0.32782
C         31.76445        22.17255         0.73344
C         32.95358        24.32297         0.28293
C         31.79239        25.05345         0.84255
C         32.96273        27.24035         0.20448
C         31.84162        26.55925         0.88311
C         32.89685        28.67693         0.03978
C         31.63975        29.38762         0.25287
C         32.79380        31.52748        -0.26090
C         31.57903        30.83638         0.01421
C         32.79256        33.00233        -0.43282
C         31.50952        33.75375        -0.40627
C         32.77947        35.96355        -0.30637
C         31.51708        35.21678        -0.20309
C         32.70443        37.36044        -0.76831
C         31.43640        37.97521        -0.79158
C         32.58337        40.10903        -1.50519
C         31.33676        39.36719        -1.25166
C         32.54291        41.50372        -1.66677
C         31.37739        42.26708        -1.28349
C         33.40902        44.76623        -0.94177
C         31.42284        43.69184        -1.21552
C         33.11469        45.99011        -0.37707
C         31.81438        46.64431        -0.47987
C         31.79810        48.03786        -0.44113
C         34.15221        20.76584         0.15832
C         35.29814        22.91681        -0.40843
C         34.15738        22.18312         0.00864
C         35.30425        24.33350        -0.46343
C         34.11089        25.06608        -0.09408
C         35.19420        27.22537        -0.92435
C         34.08634        26.49693        -0.16553
C         35.31227        28.68902        -0.51362
C         34.06014        29.38577        -0.27026
C         35.22902        31.52506        -0.56265
C         34.03791        30.83205        -0.33971
C         35.17492        32.97444        -0.83654
C         34.09568        33.71365        -0.08638
C         35.26404        35.91347        -0.94152
C         34.08855        35.23043        -0.33224
C         35.22515        37.32975        -1.13474
C         33.92822        38.02709        -1.14024
C         35.79888        40.39248        -1.33240
C         33.78873        39.35278        -1.61454
C         35.70617        41.73947        -0.88461
C         34.64185        42.60851        -1.20809
C         34.52225        43.91422        -0.69231
C         36.47444        25.04899        -0.83158
C         37.71243        27.16879        -0.81894
C         36.52766        26.47291        -0.83564
C         37.82688        28.66030        -0.61534
C         36.49376        29.36855        -0.59963
C         37.65248        31.54510        -1.25004
C         36.56351        30.86953        -0.42967
C         37.62071        32.90336        -1.49245
C         36.38356        33.69109        -1.29742
C         37.63699        35.81185        -1.58588
C         36.42693        35.16792        -1.22097
C         37.66792        37.21802        -1.47894
C         36.50591        37.99120        -1.26568
C         36.70598        39.40926        -0.98812
C         38.83802        29.38605        -1.47884
C         39.90375        31.47136        -2.27496
C         38.80316        30.75379        -1.65185
C         39.91028        32.82924        -2.39491
C         38.77471        33.62703        -1.98579
C         38.77541        35.01716        -1.99264
O         19.52214        20.51229         2.94198
O         13.06397        33.63511        -1.75969
O         26.55522        51.83599        -2.37457
O         22.58958        15.15882        -1.19889
O         29.09039        20.59475         3.57632
O         34.78676        27.21115        -2.25814
O         32.21896        25.78334         2.06182
O         14.91000        38.86814        -1.17672
O         21.10599        33.38287         3.51663
O         21.58024        21.48518         0.79337
O         23.70254        24.48657         0.66510
O         19.58111        52.32788        -1.39234
O         21.40889        51.01684         2.07365
O         32.19718        33.44611        -1.69826
O         24.28173        55.57133        -2.77427
O         17.67804        48.98492        -1.23623
O         18.50802        15.65360         2.31820
O         29.36253        17.31695        -0.00281
O          9.29697        33.30669         1.33330
O         26.17558        38.66381        -0.46683
O         33.65413        35.88453         0.91886
O         23.89880        20.64485         0.97132
O         21.10334        48.57902         2.29387
O         21.79195        43.97550        -0.75841
O         20.04029        24.03754         3.15466
O         30.66595        22.24224        -0.28425
O         33.66859        42.17362        -2.14372
O         26.61532        25.59671         0.23987
O         26.74712        35.70544         2.96150
O         17.20310        27.02851        -1.71215
O         17.11956        35.73224         2.65734
O          9.14187        28.74322         0.46366
O         14.73345        30.81172         1.41605
O         17.44536        30.75810        -0.91599
O         24.89162        38.97632         2.94539
O         17.36597        17.23014        -0.85441
O         24.59842        30.08775         3.60178
O         21.47127        53.44630         1.53545
O         22.69121        37.72236         3.47670
O         20.89297        46.18532         1.88338
O         20.37343        13.40093         1.28007
O         30.33345        39.64213        -2.28116
O         32.46274        44.29438        -1.88923
O         21.14432        40.29734         3.22304
O         24.90521        22.83193         3.70021
O         23.78288        35.48585         0.63387
O         35.29449        33.27984        -2.26029
O         34.82115        39.98538        -2.27213
O         29.96285        27.03101         2.39910
O         23.89050        46.51598         2.41156
O         18.45769        45.17082        -1.19678
O         10.04903        38.01090        -1.39176
O         11.81860        25.03095        -3.10679
O         19.67625        29.34381        -0.57126
O         30.23046        18.20075         3.49466
O         19.24390        37.62381         0.16642
O         25.33189        42.21170         2.71046
O         15.20271        18.55551         1.67870
O         24.02577        59.22743        -2.69968
O         23.68407        11.99246        -2.69688
O         17.68322        13.40477         1.49607
O         22.50464        17.96882         3.27791
O         28.79446        29.90963        -0.62504
O         18.91616        19.56343        -0.07163
O         29.62028        51.26919         1.41036
H         29.61618        50.40105         1.86781
O         14.98901        15.66463         1.44403
H         14.91700        16.57800         1.83134
O         14.28529        24.32135        -3.05808
H         13.50845        24.40762        -3.66037
O         32.86742        18.03308         3.40398
H         32.16314        17.87467         4.07301
O         38.36955        28.76905         0.75212
H         38.17782        29.69120         1.06062
O         22.79251         9.04976        -4.03876
H         23.53492         9.69184        -4.03947
O         14.97672        33.16327         2.29001
H         14.45992        32.33496         2.43771
O         29.65429        32.85250        -1.63581
H         30.42072        32.72272        -2.24231
O         34.35625        33.47880         1.31586
H         34.07603        34.29497         1.79711
O         20.23281        48.68452        -1.22970
H         19.48019        48.81660        -1.85594
O         27.35176        14.83698        -1.41116
H         27.77895        15.71716        -1.29361
O         18.60928        17.96301         3.15281
H         18.24430        17.06536         3.35196
O         29.29721        55.10146        -1.30804
H         29.33922        55.11172        -0.33002
O         20.98423        36.00164         0.41717
H         21.35439        35.14727         0.10966
O         16.88916        51.32243         2.27715
H         17.72816        51.72743         2.58635
O         20.36078        24.96814        -0.41893
H         19.89144        25.40596        -1.16085
O         14.16625        31.25530        -2.26999
H         13.74003        31.91509        -2.86053
O         14.06968        48.51909        -1.42313
H         14.84458        48.38361        -2.00749
O         10.14190        22.72380        -0.76350
H         10.23450        21.78022        -0.51878
O         36.98645        31.12160         0.98236
H         36.19639        31.01008         1.55511
O          8.28336        27.59506        -2.92064
H          8.46862        26.76801        -3.41144
O         11.39778        31.62952         1.25136
H         10.61835        32.06768         1.68075
O         18.69997         8.12940        -2.96340
H         18.53876         7.97475        -2.01034
O         20.07736        37.39987         3.67914
H         20.86183        37.40113         4.27315
H          5.22201        31.15355        -0.91265
H          5.13443        33.53995        -0.36243
H          7.78987        26.73135        -1.07581
H          6.46391        29.13476        -1.44803
H          6.28835        35.64984         0.15674
H          7.48337        37.81639         0.68036
H         10.71835        22.62529        -2.77391
H          8.96762        24.75813        -1.64368
H          8.79515        40.14792         0.76928
H          9.98856        42.27896         0.49968
H         12.64406        18.27135        -1.29590
H         11.48102        20.40728        -1.65131
H         11.25790        44.45324         0.42214
H         12.49630        46.55874         0.28709
H         15.09518        14.18683        -1.24607
H         14.10128        16.19041        -1.41833
H         13.63788        48.58123         0.59051
H         14.75813        50.87734         0.61521
H         17.74540        10.39035        -2.68906
H         16.40399        12.25347        -1.87813
H         16.03936        53.08030        -0.01716
H         17.37808        55.34092         0.09693
H         20.10613         6.17125        -2.66027
H         20.03322         9.08683        -4.20130
H         18.56291        57.33032        -0.70826
H         19.82414        59.41974        -0.96672
H         23.29607         2.67445        -1.83154
H         21.25989         4.00193        -2.38792
H         23.32911        62.58443        -1.01196
H         21.23208        61.56856        -1.48672
H         25.44405         3.80926        -1.30739
H         26.74493         5.90629        -1.04110
H         26.87403        58.98810        -0.97532
H         25.34293        61.32331        -0.40719
H         27.99529         7.99922        -0.67087
H         29.21663        10.05549        -0.18900
H         28.27337        54.14375        -2.81192
H         27.87302        56.94309        -1.72363
H         30.44096        12.10189         0.36052
H         31.65319        14.06005         1.12207
H         31.57013        50.70766        -0.56520
H         30.29193        52.92451        -0.78148
H         32.91558        15.99433         1.65955
H         34.04732        18.12143         0.83668
H         33.89561        46.52164         0.18651
H         32.75407        48.58065        -0.48469
H         35.05105        20.20313        -0.13598
H         36.22207        22.37313        -0.65751
H         36.47158        42.10583        -0.18621
H         35.29375        44.26619         0.00659
H         37.36144        24.47870        -1.15200
H         38.64646        26.60297        -0.65497
H         38.62622        37.74225        -1.60953
H         37.63122        39.68841        -0.46203
H         39.72927        28.82911        -1.80822
H         40.77476        30.88759        -2.60827
H         40.78536        33.34077        -2.82244
H         39.68302        35.54816        -2.31802
