         252
 CSIRO Nanostructure Databank - Neutral Graphene Oxide Data Set
C         30.26483        31.59690        -0.28448
C         30.45147        32.82280        -0.23902
C         30.38370        35.98248         0.34270
C         30.35976        37.20888         0.37994
C         30.41082        40.36130         0.12932
C         30.29001        41.55305        -0.22073
C         32.69956        28.96598         0.15033
C         31.49642        29.30674        -0.14166
C         32.90662        31.66769         0.60557
C         30.99135        30.52497         0.31585
C         32.85194        33.01909         0.16211
C         31.58202        33.79845        -0.27084
C         32.78246        35.89531         0.48939
C         31.48290        35.02182         0.63895
C         32.76374        37.28543         0.62190
C         31.47234        38.09750         0.86713
C         32.72733        40.19446         0.21025
C         31.52235        39.48863         0.29974
C         32.77680        41.64066        -0.10331
C         31.43753        42.49852         0.08986
C         32.72391        44.20771        -1.07557
C         31.64253        43.69953        -0.77226
C         35.50754        27.93240        -1.37385
C         35.26981        28.62843        -0.03436
C         34.00899        29.43788         0.17198
C         35.27460        31.50839        -0.17494
C         34.04378        30.84486         0.39168
C         35.33004        33.03507        -0.07044
C         34.04692        33.78534         0.03105
C         35.26354        35.97481         0.25144
C         34.00841        35.19172         0.22051
C         35.25346        37.39177         0.65355
C         33.97819        38.07049         0.60495
C         35.18881        40.24446         0.50869
C         33.94719        39.46169         0.42039
C         35.27293        41.46248        -0.40577
C         33.95091        42.22345        -0.48978
C         35.24934        44.38542        -0.88619
C         34.05550        43.56259        -1.27587
C         35.50126        45.72756        -0.90191
C         37.96318        27.70966        -1.20534
C         36.60832        27.50961        -1.73833
C         37.88253        28.77467        -0.09711
C         36.57095        29.44804         0.11767
C         37.72708        31.51203         0.82438
C         36.53925        30.79612         0.27903
C         37.74643        33.01390         0.87065
C         36.60904        33.75418         0.24844
C         37.77872        35.93679         0.91426
C         36.60409        35.25070         0.35622
C         37.74202        37.36474         0.91884
C         36.46895        38.05555         0.81461
C         37.76710        40.24257         0.66476
C         36.48657        39.53069         0.85967
C         37.70376        41.71083         0.50522
C         36.45482        42.36682        -0.02178
C         37.76019        44.53660        -0.30536
C         36.62119        43.67017        -0.80659
C         37.79611        45.93962        -0.51163
C         36.50663        46.51730        -0.82004
C         40.62710        25.97112        -3.00910
C         39.38381        26.40434        -2.79740
C         40.56707        28.04195        -1.39900
C         39.23119        27.43250        -1.89629
C         40.44335        29.20669        -0.39527
C         39.09965        29.56686         0.18334
C         40.32709        31.46563         1.19570
C         39.02496        30.80796         0.74335
C         40.23573        33.00493         1.36374
C         39.00190        33.76933         1.08557
C         40.20762        35.90270         1.50946
C         38.96343        35.16844         1.17765
C         40.19001        37.47195         1.33431
C         38.94446        38.12910         0.97916
C         40.27291        40.25645         0.75467
C         38.97354        39.55713         0.75880
C         40.29248        41.74655         0.71618
C         39.00436        42.45954         0.47179
C         40.35025        44.51375        -0.23152
C         39.04166        43.80829        -0.17191
C         40.34928        46.01697        -0.01341
C         39.01896        46.66589        -0.47911
C         40.35376        48.66772        -1.01576
C         39.30628        47.96520        -0.85760
C         43.02524        25.34773        -2.11914
C         41.72971        25.74444        -2.33088
C         42.80518        27.37671        -0.25615
C         41.46440        26.92179        -0.79900
C         42.84107        28.79718         0.19849
C         41.67387        29.44290         0.46511
C         42.78606        31.75483         0.29261
C         41.49893        30.93409         0.29752
C         42.78389        33.15625         0.85695
C         41.52431        33.80538         1.32022
C         42.72576        36.02170         1.72400
C         41.48678        35.25863         1.30141
C         42.77843        37.35672         0.99121
C         41.47882        38.10122         0.87487
C         42.76526        40.29195         0.60518
C         41.46264        39.57916         0.74996
C         42.80262        41.75908         1.01603
C         41.57814        42.47289         0.49403
C         42.85741        44.54105         0.08629
C         41.60511        43.80437         0.17515
C         42.85060        45.92251        -0.32672
C         41.63600        46.66327        -0.52715
C         42.94062        48.52709        -1.22501
C         41.63328        48.02455        -0.98741
C         44.03570        25.47600        -1.37763
C         45.39616        27.38764        -0.29301
C         44.12542        26.64103        -0.46206
C         45.40014        28.86919        -0.10009
C         44.06913        29.61052        -0.15103
C         45.21323        31.63857         0.86530
C         44.07437        31.00991         0.43304
C         45.22154        33.07063         1.16760
C         44.05279        33.78704         1.27928
C         45.34527        36.00890         1.47154
C         44.04835        35.22781         1.64050
C         45.27719        37.44688         1.09982
C         44.07369        38.08187         0.94145
C         45.31287        40.26527         1.07685
C         44.05375        39.53678         0.64545
C         45.31590        41.74267         0.72556
C         44.11062        42.45255         0.69074
C         45.32028        44.56906         0.30232
C         44.08123        43.86507         0.35860
C         45.33018        45.89616        -0.17524
C         44.13763        46.55119        -0.54099
C         43.98974        47.86571        -1.04322
C         47.71274        27.49285         0.26012
C         46.66851        26.89061        -0.20504
C         47.85463        28.73023         0.80944
C         46.64228        29.55034         0.48700
C         47.74272        31.61372         1.35380
C         46.42504        30.81786         1.32169
C         47.69026        32.95208         0.67694
C         46.53423        33.76088         1.17253
C         47.71909        35.96235         0.45863
C         46.62062        35.26354         1.17969
C         47.66141        37.31309         0.26177
C         46.52099        38.12957         0.70241
C         47.58875        40.24463        -0.18505
C         46.52251        39.49946         0.58661
C         47.76065        41.70050         0.26133
C         46.57817        42.40804         0.58644
C         47.91479        44.58452         0.68943
C         46.54353        43.89297         0.91521
C         47.71235        45.98673         0.30734
C         46.66970        46.42841        -0.19551
C         50.33280        28.79111         1.35529
C         48.94881        29.31115         1.67231
C         50.27349        31.58850         0.84620
C         49.03693        30.87923         1.43017
C         50.24015        33.03842         0.40901
C         48.88857        33.66383         0.14843
C         50.07216        35.83914        -0.51786
C         48.74016        35.13522        -0.32835
C         50.03058        37.24462        -0.69691
C         48.71270        38.00904        -0.59664
C         50.04639        40.19542        -0.76062
C         48.92111        39.45420        -0.07762
C         50.07016        41.62466        -0.70570
C         48.99068        42.33501        -0.03861
C         50.28294        44.37900        -0.39275
C         49.12074        43.79649         0.27526
C         51.11433        29.37296         0.55533
C         52.00212        31.39553        -0.83608
C         51.33337        30.70062         0.17908
C         51.84495        32.55885        -1.32569
C         51.49272        33.66786        -0.31397
C         52.27137        35.92381        -1.20873
C         51.24478        35.07428        -0.78327
C         52.27487        37.16888        -1.41713
C         51.15203        37.98497        -1.16200
C         52.09128        40.26763        -1.84141
C         51.10756        39.42594        -1.29912
C         52.17287        41.52983        -1.88494
C         51.19998        42.34576        -1.29160
C         51.08157        43.75669        -1.11204
O         36.28616        33.41821        -1.13557
O         43.47892        39.96481        -0.62426
O         50.64904        32.67140         1.76330
O         46.35666        29.62711        -0.93751
O         35.67321        40.23605         1.87509
O         48.49130        31.57857         2.59139
O         40.14278        36.83639         2.63226
O         48.02716        32.82444        -0.73200
O         37.38554        32.22589         2.07482
O         31.81753        31.11896         1.33884
O         40.86596        30.56405        -1.02229
O         36.73786        42.44219         1.37628
O         47.11443        40.36217        -1.48503
O         40.93148        33.34904         2.61113
O         44.86111        35.62343         2.78721
O         37.96991        27.34523         0.22535
O         39.81254        43.93905        -1.46590
O         36.14837        35.82387        -0.90919
O         47.00642        34.47686         2.35952
O         39.57728        42.42286         1.82340
O         42.05592        37.37574        -0.28126
O         48.88234        44.19989         1.66865
O         43.34504        26.43733         0.75608
O         42.77258        32.89848        -0.60323
O         31.78915        34.27121        -1.59375
H         31.81675        33.51434        -2.21415
O         31.34013        38.23794         2.28862
H         30.65547        38.91498         2.47478
O         48.59553        29.09171         3.02991
H         49.28179        29.49342         3.60335
O         45.31813        40.19468         2.52882
H         46.15571        40.58203         2.85838
O         35.54745        40.90646        -1.71070
H         35.38904        41.61450        -2.38228
O         49.22393        39.39998         1.33516
H         50.07616        38.93164         1.45972
O         48.20081        38.07320        -1.93571
H         48.00550        37.15273        -2.22422
O         40.61578        30.90594         2.49275
H         40.06064        31.35775         3.16355
O         42.54315        36.36823         3.11196
H         42.57065        35.55158         3.65276
O         31.38968        42.86390         1.43987
H         30.64842        43.48616         1.58574
O         35.16612        31.22378        -1.60119
H         35.75780        31.85434        -2.07413
O         46.31891        43.96449         2.35536
H         47.19752        43.89363         2.79324
O         35.28030        27.62766         0.96268
H         36.13090        27.12970         0.88114
O         40.37978        46.15109         1.43331
H         40.41688        47.10537         1.65642
O         43.83559        29.84145        -1.58019
H         44.69870        30.11437        -1.97061
O         31.40350        34.57534         1.97793
H         31.24622        35.34711         2.56147
O         42.67150        41.73536         2.46630
H         42.54350        42.65303         2.78641
O         36.95889        43.27294        -2.17335
H         37.79031        43.72676        -2.43840
O         48.19141        35.12037        -1.68153
H         47.83780        34.21365        -1.85524
O         46.10129        30.39043         2.65389
H         46.94957        30.19628         3.12661
O         41.28966        28.52610        -2.53851
H         41.53502        29.47017        -2.39402
O         52.56019        33.78066         0.59685
H         52.47333        33.06874         1.27245
O         40.82059        26.10345         0.06769
H         41.49056        25.66341         0.64268
O         34.22173        43.17326        -2.65089
H         34.46568        43.96373        -3.17697
