         470
 CSIRO Nanostructure Databank - Neutral Graphene Oxide Data Set
C         37.78167        50.12391         1.89888
C         36.69078        50.85286         2.32965
C         37.76889        52.90252         1.63791
C         36.68592        52.25575         2.19922
C         40.13198        48.59161         1.09740
C         40.06602        50.01375         0.88368
C         38.91218        50.76030         1.31752
C         40.03660        52.84040         0.57693
C         38.90662        52.18061         1.17945
C         40.05915        54.28766         0.49829
C         42.42513        48.43931         0.26779
C         41.24495        47.84722         0.81577
C         42.31507        49.85667        -0.17375
C         41.14386        50.67182         0.25060
C         42.24440        52.80748        -0.59622
C         41.11595        52.08610         0.06339
C         42.26450        54.31344        -0.58062
C         41.08976        54.99141        -0.02608
C         44.86069        45.59726         0.15785
C         43.67784        46.28086         0.24758
C         44.88341        48.37674        -0.24080
C         43.60256        47.70657         0.07900
C         44.89102        49.86773        -0.51866
C         43.57419        50.57350        -0.63277
C         44.83794        52.83484        -0.57500
C         43.57444        52.07918        -0.78340
C         44.86334        54.23697        -0.51342
C         43.62561        55.04142        -0.65856
C         44.89030        57.10935        -0.21291
C         43.70019        56.47600        -0.34014
C         47.43632        44.18036        -0.23042
C         47.38286        45.54187         0.06322
C         46.13828        46.27704         0.12848
C         47.33611        48.46773         0.41401
C         46.13138        47.67316         0.13148
C         47.29012        49.97789         0.26114
C         46.07465        50.67950        -0.20325
C         47.27186        52.80788        -0.11422
C         46.04441        52.07825        -0.30396
C         47.29611        54.20581        -0.06460
C         46.09178        54.95373        -0.23058
C         47.37323        57.10675        -0.19553
C         46.13564        56.38202        -0.21209
C         47.47893        58.45401        -0.56918
C         49.89000        44.20814        -0.42629
C         48.65983        43.52101        -0.41100
C         49.93069        45.59851        -0.17256
C         48.66916        46.24790         0.24950
C         49.90944        48.49324         0.17575
C         48.66338        47.74293         0.46380
C         49.84204        49.96549         0.59101
C         48.56352        50.70322         0.17856
C         49.75047        52.83414        -0.03999
C         48.51023        52.07519         0.01645
C         49.83601        54.19111         0.17085
C         48.55156        54.90620         0.30557
C         49.92032        57.12662         0.14048
C         48.60735        56.42442         0.23222
C         49.91324        58.53321        -0.16701
C         48.69837        59.14181        -0.54197
C         52.40197        41.35375        -0.36243
C         51.23944        42.00760        -0.49169
C         52.42857        44.26203        -0.60529
C         51.14970        43.47613        -0.70561
C         52.39270        45.72795        -0.39031
C         51.14228        46.36931        -0.23409
C         52.35994        48.57172        -0.36340
C         51.08249        47.82789        -0.12049
C         52.34333        50.05064        -0.19852
C         51.03774        50.71017         0.08490
C         52.65524        53.10425        -0.02422
C         50.87533        51.97948        -0.33928
C         52.42467        54.33547         0.48545
C         51.06521        54.95833         0.68104
C         52.36867        57.13107         0.58453
C         51.11077        56.44074         0.38811
C         52.31151        58.60439         0.56435
C         51.14302        59.28166        -0.02786
C         52.47825        61.33441        -0.27091
C         51.25394        60.63361        -0.33596
C         54.87282        40.00618        -1.36063
C         54.79597        41.50952        -1.28588
C         53.76283        41.99485        -0.22416
C         54.94397        44.31547        -0.56543
C         53.69916        43.53925        -0.25910
C         54.85374        45.77267        -0.73475
C         53.65134        46.43754        -0.47069
C         54.87886        48.58461        -0.35020
C         53.67254        47.87650        -0.36143
C         54.90687        49.99927         0.08702
C         53.61093        50.71389         0.29502
C         54.92589        52.90122         0.50892
C         53.60593        52.18790         0.69748
C         54.91083        54.30762         1.02171
C         53.59355        55.03449         1.09163
C         54.86579        57.19660         0.94234
C         53.58608        56.50415         0.90776
C         54.90426        58.60400         0.73598
C         53.64621        59.37131         0.65400
C         54.94848        61.42516         0.07309
C         53.67515        60.73957         0.11423
C         55.01960        62.79971        -0.24649
C         57.32780        39.98660        -1.14901
C         56.01848        39.31367        -1.29626
C         57.32779        41.47104        -1.22890
C         56.15585        42.16227        -1.06512
C         57.39406        44.29476        -0.89891
C         56.18746        43.60017        -0.88913
C         57.42177        45.77255        -0.91499
C         56.11068        46.52819        -0.90830
C         57.37578        48.60171        -0.27013
C         56.15138        47.94379        -0.49853
C         57.39087        50.03292         0.00502
C         56.19444        50.72683         0.06822
C         57.48532        52.98536         0.16974
C         56.18209        52.20435         0.12632
C         57.36270        54.32759         0.88904
C         56.18194        55.04539         0.94579
C         57.35807        57.19232         0.96575
C         56.11819        56.48710         1.02571
C         57.36386        58.60852         0.80732
C         56.13162        59.30651         0.64315
C         57.38136        61.44674         0.49590
C         56.15150        60.73270         0.40682
C         57.39430        62.85813         0.28602
C         56.20813        63.49777        -0.13598
C         59.87593        37.13768        -1.42082
C         58.68415        37.79804        -1.58147
C         59.86607        40.03795        -1.65461
C         58.62238        39.25512        -1.34283
C         59.90141        41.46325        -1.37043
C         58.60258        42.20878        -1.56015
C         59.84871        44.31016        -0.93476
C         58.63092        43.61757        -1.05382
C         59.85980        45.72692        -0.57107
C         58.66505        46.46221        -0.53283
C         59.83166        48.54709         0.08039
C         58.64217        47.88408        -0.26625
C         59.84733        49.95369         0.38704
C         58.64575        50.72541         0.29104
C         59.82204        52.74441         1.05116
C         58.65989        52.12369         0.56661
C         59.91399        54.23367         1.32149
C         58.60719        55.02949         1.24276
C         59.82938        57.17703         1.06050
C         58.60396        56.49181         1.07296
C         59.83241        58.61609         1.00529
C         58.60478        59.32061         0.85254
C         59.82503        61.44609         1.01426
C         58.61174        60.74265         0.77294
C         59.75466        62.91893         1.10596
C         58.59327        63.62180         0.56265
C         59.86459        65.72489         0.44761
C         58.65362        65.00375         0.40509
C         62.32192        35.79912        -0.20882
C         62.34349        37.07336        -0.94218
C         61.11051        37.81706        -1.24405
C         62.42887        40.01145        -1.27931
C         61.20927        39.23311        -1.57743
C         62.38906        41.45871        -1.27897
C         61.11302        42.18122        -1.31602
C         62.30291        44.40161        -1.15921
C         61.07244        43.60810        -1.13651
C         62.31320        45.78469        -0.61367
C         61.10472        46.39807        -0.31946
C         62.37259        48.51615         0.30369
C         61.07861        47.72807         0.39425
C         62.35160        49.83177         1.05342
C         61.03303        50.57570         0.88155
C         62.68121        53.09836         1.07275
C         60.90260        51.88573         1.35638
C         62.39111        54.38382         0.70558
C         61.14243        55.03501         1.06236
C         62.30025        57.20663         0.89721
C         61.07230        56.44044         1.00287
C         62.28369        58.58604         1.15193
C         61.05490        59.33909         1.14164
C         62.26973        61.54942         1.67681
C         61.04123        60.76202         1.20963
C         62.35750        62.96494         1.09588
C         61.12585        63.73672         1.14793
C         62.36005        65.78988         0.43200
C         61.09422        65.11323         0.65835
C         62.37282        67.17350         0.14393
C         64.73645        35.93191         0.28528
C         63.45243        35.25327         0.30386
C         64.80766        37.25059        -0.20629
C         63.65489        37.85689        -0.90045
C         64.86706        40.02400        -0.90927
C         63.61415        39.33103        -1.00100
C         64.86049        41.47087        -1.02677
C         63.59486        42.15635        -1.12254
C         64.78071        44.34132        -0.60990
C         63.60692        43.62824        -1.17097
C         64.78551        45.82347        -0.61769
C         63.55577        46.50024        -0.47452
C         64.81920        48.64088        -0.21428
C         63.55514        47.90804        -0.09637
C         64.84958        50.05370        -0.09328
C         63.84474        50.79201         0.79335
C         64.69857        52.96774        -0.38592
C         63.60486        52.22950         0.32457
C         64.74789        54.44981        -0.26419
C         63.38923        55.15543        -0.15065
C         64.68759        57.23162         0.31627
C         63.50847        56.55206         0.42435
C         64.81180        58.56921         0.90311
C         63.55506        59.28356         1.37836
C         64.84017        61.50827         1.12278
C         63.58988        60.78452         1.53107
C         64.80279        62.95379         0.82480
C         63.57397        63.63770         0.80120
C         64.82027        65.77552         0.29415
C         63.58554        65.07948         0.51573
C         64.79156        67.16816         0.02498
C         63.56572        67.84913        -0.04126
C         67.04962        33.33801         1.72032
C         65.94470        33.93841         1.20789
C         67.09144        36.10987         0.98463
C         65.89680        35.34708         0.88322
C         67.18807        37.37276         0.36981
C         66.03195        37.97320        -0.19151
C         67.35321        39.93457        -1.17950
C         66.06121        39.32997        -0.67455
C         67.35710        41.46591        -1.12658
C         66.06668        42.17179        -0.99102
C         67.32047        44.37478        -0.60353
C         66.07527        43.58655        -0.58518
C         67.26791        45.80009        -0.68064
C         66.02176        46.50881        -0.64021
C         67.21285        48.66420        -0.84128
C         66.01252        47.95673        -0.60462
C         67.21813        50.07438        -0.79931
C         66.00286        50.75739        -0.50297
C         67.20035        53.00173        -0.92987
C         65.94392        52.22504        -0.73276
C         67.25366        54.52387        -0.79563
C         65.90851        55.14057        -0.38930
C         67.17714        57.26193         0.11114
C         65.88487        56.65927        -0.41212
C         67.22630        58.62072         0.32929
C         66.00005        59.37248         0.55033
C         67.27197        61.45629         0.37656
C         66.01545        60.73116         0.66548
C         67.30218        62.93779         0.44886
C         66.10214        63.70364         0.97046
C         67.32437        65.72403         0.16586
C         66.09901        65.10244         0.40442
C         67.37032        67.15321        -0.22535
C         66.04826        67.91720        -0.21796
C         67.28854        69.96801         0.33063
C         66.10014        69.34126         0.13959
C         69.45125        32.08660         2.93957
C         69.46757        33.44817         2.58891
C         68.18977        34.12668         2.21699
C         69.51034        36.34822         1.82912
C         68.20731        35.59680         1.81153
C         69.67353        37.52748         0.96963
C         68.51869        38.00531         0.17842
C         69.93563        40.08064        -0.59598
C         68.62939        39.27315        -0.61284
C         69.75635        41.52638        -0.11450
C         68.59707        42.23180        -0.78161
C         69.77053        44.40595        -0.65499
C         68.53487        43.70223        -0.57306
C         69.71141        45.81128        -0.91200
C         68.49726        46.49360        -0.89826
C         69.73279        48.67396        -0.99691
C         68.44853        47.94433        -1.33523
C         69.70467        50.10212        -0.83387
C         68.47808        50.79239        -0.91484
C         69.75914        52.97813        -0.45143
C         68.49898        52.25541        -0.94223
C         69.58826        54.31106         0.19230
C         68.40911        55.00459         0.08729
C         69.54959        57.09597         1.06924
C         68.30347        56.40439         0.55432
C         69.71053        58.52590         0.66467
C         68.47686        59.33417         0.55635
C         69.75979        61.43660         1.03004
C         68.52751        60.69496         0.55479
C         69.79848        62.90224         0.63679
C         68.61213        63.63854         0.53877
C         69.84740        65.74434         0.21593
C         68.59584        65.04609         0.34894
C         69.88697        67.15931        -0.02842
C         68.63148        67.90665        -0.00046
C         70.54018        70.23049        -0.45916
C         68.54046        69.26530         0.23858
C         70.73829        71.52462        -0.95134
C         71.82898        32.11305         3.34502
C         70.61733        31.42087         3.31156
C         71.86279        33.46364         3.00466
C         70.69661        34.15028         2.62222
C         72.04943        36.16576         1.79411
C         70.78363        35.60020         2.27312
C         72.10475        37.40893         1.24871
C         70.92220        38.13301         0.83460
C         72.18352        40.22319         0.39032
C         71.05240        39.44721         0.22974
C         72.22202        41.59796         0.01285
C         71.05743        42.30692        -0.25859
C         72.22616        44.47420        -0.74224
C         71.01475        43.70720        -0.55067
C         72.21357        45.77841        -1.10549
C         70.94528        46.52761        -1.40965
C         72.15025        48.68121        -0.72518
C         70.93610        47.98592        -0.99648
C         72.14621        50.02545        -0.46532
C         70.93955        50.79402        -0.51879
C         72.09814        52.82069         0.37210
C         70.93955        52.15835        -0.16258
C         72.05122        54.10409         0.80779
C         70.77565        54.83559         0.92888
C         72.04869        57.07314         1.54511
C         70.79672        56.30764         1.33231
C         72.15272        58.40212         1.34394
C         71.03952        59.20283         0.77698
C         72.22843        61.40184         0.69345
C         71.05589        60.69238         0.79009
C         72.24235        62.81650         0.61214
C         71.05554        63.57029         0.53595
C         72.28852        65.67341         0.05953
C         71.06781        65.00023         0.28222
C         72.30272        67.00447        -0.31417
C         71.11568        67.76347        -0.38851
C         72.16291        69.35460        -2.00051
C         71.25187        69.12372        -0.95159
C         72.35571        70.63729        -2.51518
C         71.65630        71.72519        -1.98429
O         48.77217        46.85075         1.61824
O         67.77451        35.18771         3.14327
O         51.86613        43.90049        -1.91705
O         54.23239        54.52130         2.30213
O         54.21476        50.01011         1.43910
O         61.95426        52.46584         2.08386
O         42.70899        52.38918        -1.91165
O         42.77307        54.84069        -1.83606
O         70.56708        58.65405        -0.52745
O         64.45626        50.84965         2.01634
O         68.50708        56.73451         1.99784
O         65.25555        43.78444         0.65555
O         51.89728        52.58909        -1.07009
O         63.09903        44.22987        -2.39628
O         63.51452        52.47817        -1.12154
O         52.77048        59.21463         1.81568
O         42.68276        49.96299        -1.59476
O         54.41294        44.07651         0.87944
O         69.64562        70.05227         0.61041
O         60.28802        63.49149         2.31631
O         56.82634        46.27764        -2.17722
O         58.12216        39.54355         0.02806
O         45.07361        48.91143        -1.62224
O         70.55321        55.26348         2.31773
O         47.11637        49.32146         1.61930
O         66.40175        52.60487        -2.09600
O         59.19239        54.59721         2.53889
O         64.44031        58.61455         2.32334
O         66.69847        67.51980        -1.47684
O         55.29890        52.81371        -0.91329
O         64.52854        61.21800         2.57378
O         63.26602        37.11314        -2.10150
O         68.86218        37.99871        -1.30282
O         68.27906        41.95635        -2.17468
O         48.41989        55.72290         1.52921
O         67.15714        62.29473        -0.86152
O         69.41630        52.89468        -1.88280
O         52.35473        49.49609        -1.54889
O         60.56011        39.60371        -2.84491
O         70.05958        36.49869         3.17099
O         65.76922        57.07432        -1.80164
H         66.44094        56.54668        -2.30178
O         53.17873        52.22612         2.06873
H         53.58401        51.45891         2.53286
O         58.52845        42.33143        -3.05482
H         59.31535        42.84244        -3.34614
O         70.82519        46.55240        -2.88481
H         70.81675        45.62029        -3.19252
O         68.35095        47.91608        -2.79490
H         69.19549        47.51593        -3.12374
O         67.53875        55.03949        -2.13014
H         67.24770        54.34792        -2.76848
O         69.42109        41.44786         1.29724
H         69.49535        42.34389         1.68751
O         62.46076        49.48777         2.44038
H         63.32273        49.93248         2.74845
O         69.60438        61.45150         2.50585
H         70.31684        62.01833         2.87212
O         60.93219        47.37284         1.81626
H         61.40147        48.07384         2.34452
O         67.32228        39.61745        -2.59658
H         67.60733        38.67903        -2.68093
O         49.83878        49.94031         2.04152
H         48.95915        49.59033         2.32479
O         70.39769        40.14133        -1.95878
H         70.22639        39.26377        -2.36387
O         57.79373        53.39352        -1.19893
H         56.92712        53.51430        -1.65542
O         62.87073        55.26055        -1.49741
H         62.88864        54.35253        -1.87790
O         54.31398        42.00956        -2.55518
H         54.99017        41.82682        -3.24065
O         66.29936        63.84698         2.42038
H         65.99611        63.01749         2.85233
O         54.25580        41.57070         1.05784
H         54.60426        42.37300         1.51727
O         50.89931        54.87004         2.13491
H         50.01512        55.25930         2.34963
O         62.05793        61.72228         3.10294
H         62.94902        61.82039         3.51175
H         37.75514        49.03216         2.00725
H         35.82562        50.34031         2.77191
H         37.72657        53.99472         1.54191
H         35.81663        52.83451         2.54021
H         39.27152        48.07706         1.54277
H         39.20125        54.85154         0.88467
H         41.23953        46.77577         1.05720
H         41.02966        56.08660        -0.08267
H         44.84310        44.50121         0.22132
H         42.74887        45.70794         0.37352
H         44.90865        58.19691        -0.05936
H         42.77062        57.06075        -0.35220
H         46.51082        43.60113        -0.34787
H         46.58502        58.99973        -0.90184
H         48.63889        42.44592        -0.63216
H         48.69041        60.20469        -0.81822
H         52.37675        40.26393        -0.21090
H         50.30448        41.42775        -0.48779
H         52.47156        62.37893        -0.61019
H         50.37937        61.18205        -0.71224
H         53.92457        39.46654        -1.50412
H         54.11538        63.34558        -0.54490
H         55.99930        38.21465        -1.34020
H         56.20605        64.57347        -0.35324
H         59.88247        36.03757        -1.43366
H         57.75663        37.22874        -1.72888
H         59.81680        66.78741         0.17564
H         57.75396        65.56141         0.11366
H         61.35475        35.29951        -0.05229
H         61.43347        67.73516         0.07208
H         63.37624        34.29543         0.83667
H         63.54078        68.92214        -0.27261
H         67.07828        32.24189         1.79096
H         65.09679        33.30676         0.90874
H         67.31878        71.02570         0.62572
H         65.16518        69.88088         0.34513
H         68.50275        31.53294         2.94290
H         70.18105        72.36586        -0.51938
H         72.75214        31.60127         3.64892
H         70.57718        30.35875         3.58870
H         72.82002        33.99931         3.05986
H         72.97422        35.57938         1.88698
H         73.08509        37.81130         0.95777
H         73.08236        39.80523         0.86722
H         73.19353        42.11130         0.04581
H         73.19496        43.97103        -0.61249
H         73.17201        46.27780        -1.30587
H         73.10495        48.13966        -0.71679
H         73.10195        50.52417        -0.25989
H         73.05537        52.28459         0.41636
H         72.95380        54.57334         1.22124
H         72.89966        56.52758         1.97813
H         73.09170        58.91647         1.59635
H         73.18799        60.86871         0.62173
H         73.21999        63.30821         0.53481
H         73.24321        65.13681         0.12501
H         73.26237        67.48684        -0.54543
H         72.72004        68.51079        -2.43140
H         73.06780        70.79187        -3.33697
H         71.82489        72.73568        -2.38087
