         429
 CSIRO Nanostructure Databank - Neutral Graphene Oxide Data Set
C          1.39231         1.98421        -1.05123
C          1.34874         3.39557        -0.96933
C          2.56958         1.30087        -0.84528
C          2.48287         4.14017        -0.65688
C          1.34025         6.32862        -1.10653
C          1.34099         7.70760        -1.14220
C          2.47333         5.60885        -0.65308
C          2.47575         8.45987        -0.74813
C          1.35132        10.62556        -1.31335
C          1.38062        11.99804        -1.44569
C          2.48414         9.90318        -0.85661
C          2.54497        12.74944        -1.14040
C          1.47523        14.90362        -1.85969
C          1.53430        16.26669        -2.09082
C          2.58850        14.18864        -1.34485
C          2.71323        16.99888        -1.81946
C          2.79406        18.40790        -2.07262
C          3.76146         2.01114        -0.50964
C          3.71122         3.44189        -0.38709
C          4.97422         1.33506        -0.28574
C          4.87034         4.14419         0.00989
C          3.60128         6.33673        -0.22797
C          3.62650         7.76197        -0.27618
C          4.76714         5.59202         0.30004
C          4.80342         8.51549         0.10645
C          3.65322        10.63048        -0.50644
C          3.68612        12.06108        -0.65403
C          4.78725         9.91690         0.00513
C          4.88840        12.80294        -0.35651
C          3.77685        14.90584        -1.04830
C          3.84317        16.31425        -1.28544
C          4.93364        14.22270        -0.53706
C          5.03510        17.03919        -0.99477
C          3.94142        19.10400        -1.80941
C          5.09506        18.44497        -1.25838
C          6.14863         2.03850         0.03807
C          6.09565         3.46567         0.19760
C          7.39385         1.35761         0.19166
C          7.30944         4.17254         0.50238
C          6.01911         6.34920         0.64802
C          6.03660         7.82609         0.47048
C          7.31064         5.62026         0.64433
C          7.22563         8.49746         0.62369
C          5.94945        10.70387         0.44529
C          6.04017        12.13034         0.10211
C          7.25121         9.96041         0.72962
C          7.26391        12.81619         0.29461
C          6.10916        14.94360        -0.21277
C          6.16604        16.37653        -0.42054
C          7.29385        14.24254         0.18405
C          7.32300        17.10450        -0.09452
C          6.27289        19.14773        -0.98597
C          7.40241        18.50539        -0.40070
C          8.56428         2.04193         0.47501
C          8.51117         3.45805         0.63033
C          9.86699         1.25154         0.50482
C          9.73960         4.20748         0.96025
C          8.49298         6.33306         0.72040
C          8.50867         7.80811         1.01976
C          9.76022         5.65860         0.68153
C          9.75199         8.51207         0.50460
C          8.52383        10.68037         0.56521
C          8.49620        12.09885         0.49539
C          9.73830         9.95879         0.43736
C          9.72335        12.82243         0.49982
C          8.49807        14.95012         0.44035
C          8.38958        16.42370         0.74404
C          9.72326        14.25738         0.55947
C          9.73665        17.15555         0.77807
C          8.58826        19.23788        -0.20517
C          9.80010        18.63940         0.34406
C         11.09500         2.01166         0.97571
C         11.02222         3.48741         1.15630
C         12.27795         1.41358         1.21943
C         12.28360         4.23843         0.93719
C         10.93481         6.34530         0.41231
C         10.90913         7.78947         0.25456
C         12.20243         5.57591         0.31704
C         12.14059         8.51960        -0.13096
C         10.95926        10.68024         0.28130
C         10.95094        12.10997         0.39731
C         12.18737         9.97922         0.05742
C         12.17081        12.83403         0.37932
C         10.97440        14.95488         0.69331
C         11.00705        16.40408         0.73620
C         12.18141        14.21744         0.64366
C         12.20837        17.11051         0.72627
C         11.11108        19.20533         0.06673
C         12.27432        18.52759         0.43049
C         13.44414         2.22149         1.76826
C         13.47993         3.61397         1.15907
C         14.75990         1.52027         1.63264
C         14.74030         4.34270         1.07836
C         13.52529         6.30953         0.11827
C         13.48989         7.78569        -0.16632
C         14.71143         5.71625         0.73751
C         14.71670         8.57579        -0.01259
C         13.40608        10.65781        -0.09078
C         13.39386        12.13134        -0.06326
C         14.66948         9.98042        -0.16227
C         14.69975        12.85589        -0.08492
C         13.47829        14.90306         0.88734
C         13.47778        16.40087         1.01371
C         14.75496        14.22729         0.50238
C         14.79186        17.13176         0.97962
C         13.54549        19.18379         0.32460
C         14.77513        18.55114         0.53571
C         15.95370         2.22539         1.50968
C         15.94878         3.66988         1.38957
C         17.19783         1.52802         1.43372
C         17.25972         4.38916         1.64231
C         15.88921         6.56719         0.94210
C         15.94229         7.91700         0.34262
C         17.21319         5.88294         1.29064
C         17.16390         8.57463         0.21586
C         15.92191        10.72230        -0.18122
C         15.96796        12.09585        -0.09753
C         17.18461         9.93803        -0.43478
C         17.21685        12.84682        -0.06047
C         15.94827        15.05708         0.06209
C         16.10469        16.32838         0.92208
C         17.23673        14.24909         0.03696
C         17.29176        17.11396         0.41622
C         15.99553        19.22553         0.35976
C         17.25014        18.54836         0.35567
C         18.39863         2.20828         1.09016
C         18.39351         3.62170         1.00480
C         19.59166         1.48047         0.80390
C         19.54944         4.32192         0.35645
C         18.41493         6.55980         0.79518
C         18.40507         7.87545         0.37659
C         19.66672         5.76573         0.80609
C         19.64748         8.50793        -0.23664
C         18.46021        10.70369        -0.17137
C         18.45325        12.12838        -0.12155
C         19.66256        10.01367        -0.13103
C         19.69000        12.83644        -0.21334
C         18.47251        14.95964         0.03019
C         18.46748        16.41736         0.14567
C         19.68783        14.27022        -0.15787
C         19.70698        17.13229         0.02644
C         18.45469        19.25473         0.20241
C         19.69475        18.57292         0.12548
C         20.82939         2.14462         0.57648
C         20.85334         3.56956         0.46965
C         22.04234         1.41945         0.46506
C         22.08905         4.25385         0.34104
C         20.95132         6.47439         0.55633
C         20.94666         7.89106         0.20675
C         22.15375         5.68408         0.28743
C         22.15202         8.55576        -0.04841
C         20.91646        10.71006        -0.25364
C         20.90553        12.12008        -0.38570
C         22.13690         9.96049        -0.31654
C         22.08339        12.87673        -0.96651
C         20.95241        14.99042        -0.24405
C         20.92891        16.44302        -0.10687
C         22.13244        14.31942        -0.49816
C         22.15651        17.16673        -0.06643
C         20.91106        19.27908         0.16145
C         22.14771        18.59860         0.12240
C         23.28440         2.07467         0.28766
C         23.30854         3.51234         0.25522
C         24.49798         1.35492         0.15598
C         24.54955         4.19950         0.14902
C         23.36984         6.37277         0.15177
C         23.40979         7.81556         0.03780
C         24.58223         5.62961         0.10540
C         24.64531         8.46788        -0.04223
C         23.39591        10.62201        -0.70174
C         23.41993        12.12613        -0.87992
C         24.69557         9.86555        -0.51840
C         24.70792        12.86588        -0.55832
C         23.43021        15.07677        -0.71078
C         23.39025        16.48044        -0.14759
C         24.62967        14.28671        -0.24814
C         24.58633        17.17000         0.10631
C         23.36966        19.29885         0.22397
C         24.59687        18.60797         0.23674
C         25.74353         2.01911         0.02830
C         25.76160         3.45668         0.06345
C         26.96438         1.31309        -0.12070
C         27.00660         4.14828         0.00126
C         25.82972         6.32301         0.12715
C         25.88172         7.76591         0.11896
C         27.01458         5.57936         0.14819
C         27.12366         8.46337         0.25644
C         26.03213        10.62424        -0.50522
C         25.80806        12.04145         0.10741
C         27.18216         9.90042         0.21774
C         27.16390        12.77330         0.08787
C         25.74812        14.96694         0.48974
C         25.82593        16.45222         0.18195
C         27.07649        14.26315         0.35494
C         27.02397        17.13663         0.16899
C         25.83767        19.28357         0.33523
C         27.05772        18.58086         0.24597
C         28.19951         1.99306        -0.28401
C         28.19554         3.41924        -0.23130
C         29.43478         1.29997        -0.46968
C         29.42516         4.18688        -0.61946
C         28.26180         6.27275         0.46926
C         28.32865         7.74470         0.53307
C         29.52462         5.48580         0.14425
C         29.56656         8.39150         0.77293
C         28.33281        10.56916         0.64759
C         28.18847        12.06921         0.99069
C         29.58095         9.86512         0.95203
C         29.48010        12.88808         0.96579
C         28.27027        14.95583         0.29302
C         28.28816        16.39585        -0.16081
C         29.51681        14.26853         0.41193
C         29.55831        17.12192         0.15567
C         28.30529        19.24404         0.32142
C         29.54899        18.54302         0.31060
C         30.68924         1.97725        -0.53710
C         30.71115         3.40756        -0.52931
C         31.92915         1.29341        -0.62329
C         31.92616         4.10776        -0.51338
C         30.72122         6.27947        -0.00117
C         30.75001         7.54917         0.57653
C         31.92573         5.59684        -0.51347
C         32.07910         8.01726         0.86744
C         30.74196        10.65890         1.22403
C         30.74759        12.14844         1.14994
C         32.06745        10.12632         1.41978
C         32.03425        12.89519         0.88086
C         30.75123        14.93695         0.18837
C         30.76639        16.40273         0.09531
C         31.98436        14.23405         0.26205
C         31.99205        17.11723         0.16451
C         30.77700        19.22536         0.46009
C         32.00928        18.53327         0.37424
C         33.16752         1.98535        -0.59617
C         33.15203         3.41425        -0.46835
C         34.40944         1.30340        -0.76982
C         34.40642         4.13463        -0.18066
C         33.23450         6.34151        -0.47421
C         33.21246         7.65371         0.20089
C         34.49944         5.59136        -0.26643
C         34.44623         8.46614         0.09485
C         33.25162        10.67463         0.97338
C         33.31298        12.12784         0.82265
C         34.43702         9.99019         0.29392
C         34.58941        12.73506         0.39953
C         33.22577        14.84267        -0.17457
C         33.24573        16.43433        -0.12509
C         34.59532        14.12932        -0.17995
C         34.51446        17.10566         0.12102
C         33.25669        19.21244         0.41466
C         34.49446        18.52415         0.32594
C         35.67485         1.95255        -0.74093
C         35.73864         3.36427        -0.27155
C         36.85610         1.32483        -1.10111
C         36.93365         4.17383        -0.50007
C         35.70621         6.23748        -0.04740
C         35.74368         7.72569        -0.05128
C         36.95936         5.53669        -0.23217
C         37.02481         8.45467         0.12678
C         35.75211        10.54504         0.90252
C         35.74128        12.04632         0.61623
C         37.02472         9.84536         0.37971
C         37.01458        12.76639         0.78791
C         35.74163        14.96992         0.34692
C         35.74187        16.37130         0.25281
C         36.96803        14.27059         0.74795
C         36.99052        17.11311         0.27473
C         35.72605        19.22794         0.36335
C         36.96460        18.55465         0.24300
C         38.17659         2.03062        -0.92153
C         38.04422         3.51874        -1.26553
C         39.32911         1.43688        -1.70528
C         39.35555         4.24962        -1.13235
C         38.21341         6.29574        -0.32411
C         38.23547         7.73509        -0.08933
C         39.38669         5.60805        -0.67296
C         39.44448         8.47687        -0.19109
C         38.24378        10.55832         0.28268
C         38.30689        11.99816         0.67405
C         39.43656         9.89446        -0.09861
C         39.57976        12.76021         0.42458
C         38.28616        15.02941         0.60026
C         38.22174        16.44419         0.20073
C         39.56236        14.26828         0.37848
C         39.43847        17.15336        -0.03419
C         38.18555        19.26044         0.15323
C         39.41432        18.58600        -0.01320
C         40.40947         2.19420        -1.99163
C         40.49191         3.59639        -1.59172
C         41.74777         4.30169        -1.65725
C         40.71196         6.25192        -0.56499
C         40.73493         7.77652        -0.33021
C         41.86231         5.56560        -1.17498
C         41.88764         8.57527        -0.77742
C         40.65757        10.65966        -0.37277
C         40.70446        12.03810        -0.21992
C         41.82217         9.92370        -0.83236
C         41.88458        12.83970        -0.50150
C         40.56368        14.95972        -0.54362
C         40.66331        16.45408        -0.26414
C         41.85795        14.19001        -0.59132
C         41.83705        17.18426        -0.40391
C         40.64743        19.28989        -0.14993
C         41.82749        18.59725        -0.31992
O         16.44986         6.59914         2.31432
O         32.52997         6.17562        -1.74233
O         32.16502         8.85336         1.96831
O          5.09331         5.91740         1.70860
O         10.25346         3.89897         2.34685
O         12.90195         5.56148        -0.97871
O         37.65524        14.85088         1.89862
O         12.75773         8.09443        -1.39142
O         29.00557         5.51751         1.49862
O         30.09873        12.81721         2.31286
O         35.08894         3.58879         1.00682
O         33.11885        15.65143        -1.37656
O         41.01140         6.83062         0.75355
O         24.04323         9.93778        -1.84344
O         13.93561        12.75994        -1.33168
O         20.46102         6.08256         1.97536
O         24.33487        12.51101        -1.95071
O          6.39514        10.44469         1.82005
O         14.34459        14.25708         1.89700
O         35.02579         8.20822        -1.25716
O         37.70947        12.24454         1.98614
O          9.71230        18.20121         1.77668
O         40.07246        13.59322         1.54295
O         14.09449        16.91392         2.25175
O         32.89954        12.84420         2.07675
O         21.79714        12.97297        -2.40910
H         21.93138        12.08286        -2.80053
O         37.65998         3.57555        -2.67649
H         37.57683         4.51883        -2.92982
O         15.65834        15.49895        -1.28960
H         15.52679        14.70554        -1.85256
O          9.69975         0.05875         1.27917
H          9.54912         0.31912         2.21104
O         13.19284         2.38754         3.20354
H         12.33859         2.86306         3.29868
O         39.94372        14.85317        -1.86976
H         40.52202        15.31628        -2.51175
O         19.55958         8.20478        -1.67408
H         18.76517         8.68963        -2.01866
O         25.28670        11.83792         1.43623
H         26.01908        11.90954         2.09760
O         27.75085        12.68572        -1.22919
H         27.11826        13.03877        -1.88945
O         17.20127         9.67966        -1.89644
H         16.32688         9.30279        -2.13799
O         34.31804        10.55972        -1.03970
H         34.64124         9.88128        -1.68167
O          8.59170         7.93089         2.47902
H          7.74283         7.61504         2.85657
O         35.71720        10.31310         2.32178
H         36.43263        10.86585         2.71777
O         25.40049        14.90714         1.92970
H         26.14849        15.29586         2.43147
O         34.95244        13.91913        -1.58560
H         34.51280        14.64130        -2.09652
O         19.24309         4.43542        -1.08943
H         19.20964         3.52605        -1.45597
O         26.46514        10.70056        -1.87137
H         25.65077        10.68372        -2.43080
O         17.48579         4.31431         3.08895
H         17.00986         5.07614         3.49140
O         23.57053        15.24761        -2.16859
H         23.28927        14.39575        -2.58395
O         27.71409        12.09773         2.35798
H         28.52260        12.17538         2.92726
O         16.45911        15.92851         2.25711
H         15.61503        15.85784         2.76713
O         28.27986        16.27906        -1.63702
H         28.34811        17.18745        -2.00131
O         38.52209         1.95312         0.49151
H         38.51971         1.01063         0.75772
O         29.25376         4.58468        -2.02193
H         29.31840         3.77741        -2.57440
O          7.86730        16.46711         2.11311
H          8.18939        17.31300         2.50567
H          0.47249         1.43628        -1.29895
H          0.38910         3.89330        -1.16199
H          2.60494         0.20544        -0.93005
H          0.44324         5.79343        -1.44405
H          0.43952         8.21842        -1.50394
H          0.42442        10.09765        -1.57172
H          0.47648        12.50523        -1.80647
H          0.54043        14.37590        -2.09004
H          0.65690        16.79194        -2.49508
H          1.91412        18.92061        -2.48785
H          5.00792         0.23938        -0.37737
H          3.99717        20.18396        -2.00934
H          7.42444         0.26617         0.05956
H          6.32980        20.22350        -1.20843
H         10.06580         0.90926        -0.55036
H          8.64848        20.26466        -0.59524
H         12.38034         0.32154         1.12339
H         11.17548        20.20325        -0.39131
H         14.78665         0.42425         1.73284
H         13.54707        20.24356         0.02705
H         17.20180         0.43128         1.51417
H         15.98063        20.30475         0.14427
H         19.57804         0.38360         0.87770
H         18.44265        20.35464         0.18855
H         22.01666         0.32119         0.52439
H         20.89898        20.37385         0.26842
H         24.47237         0.25501         0.16246
H         23.36028        20.39627         0.29835
H         26.94857         0.21326        -0.13834
H         25.84936        20.37747         0.45136
H         29.42449         0.20043        -0.49351
H         28.31894        20.33878         0.42902
H         31.93226         0.19547        -0.69185
H         30.77786        20.31623         0.59820
H         34.38276         0.22657        -0.99660
H         33.26450        20.30600         0.52837
H         36.84051         0.27329        -1.42947
H         35.71362        20.32502         0.44156
H         39.31607         0.36388        -1.95251
H         38.17482        20.36012         0.18361
H         41.28352         1.75256        -2.49479
H         42.62471         3.78453        -2.07334
H         42.84160         6.06331        -1.16629
H         42.82152         8.06355        -1.04693
H         42.70488        10.48256        -1.17049
H         42.84848        12.32927        -0.64090
H         42.79366        14.72393        -0.81197
H         42.79494        16.67815        -0.58714
H         40.64474        20.38883        -0.12034
H         42.77607        19.14262        -0.42178
