         349
 CSIRO Nanostructure Databank - Neutral Graphene Oxide Data Set
C          1.47850         1.78122        -1.77465
C          1.37785         2.90441        -0.90223
C          2.71258         1.34178        -2.16933
C          2.50018         3.64714        -0.60499
C          1.54853         6.64728         0.84731
C          1.49843         8.01103         0.61799
C          2.58307         5.87623         0.28005
C          2.53658         8.62785        -0.09550
C          1.20506        10.82179        -0.21416
C          1.22877        12.18797        -0.22824
C          2.40163        10.02681        -0.54848
C          2.40896        12.95281        -0.46143
C          1.23608        15.14954        -0.14330
C          1.28268        16.51688         0.01693
C          2.42477        14.35742        -0.27837
C          2.51763        17.20467         0.22361
C          2.54453        18.64738         0.21739
C          3.90875         2.04856        -1.78762
C          3.80136         3.34679        -1.13538
C          5.15185         1.48188        -1.99878
C          4.93220         4.17723        -0.99072
C          3.70604         6.45623        -0.33444
C          3.69690         7.88336        -0.45503
C          4.83373         5.70888        -1.06574
C          4.92219         8.60733        -0.76907
C          3.66213        10.76411        -0.92877
C          3.66133        12.29528        -1.02092
C          4.93608        10.01993        -0.79613
C          4.94008        12.94798        -0.53070
C          3.68985        15.03391        -0.18251
C          3.69358        16.40260         0.22026
C          4.93406        14.32828        -0.29071
C          4.92481        16.92880         0.71347
C          3.64143        19.48465         0.28563
C          4.92896        19.03847         0.74476
C          6.32143         2.13376        -1.49032
C          6.22067         3.56271        -1.14832
C          7.49321         1.43365        -1.32730
C          7.40153         4.27476        -0.93621
C          6.15963         6.43936        -0.84275
C          6.15219         7.83598        -0.83110
C          7.40142         5.69955        -0.75731
C          7.42783         8.57199        -0.92133
C          6.13887        10.78626        -0.68844
C          6.14066        12.17974        -0.50312
C          7.42967        10.06414        -0.72568
C          7.43306        12.87041        -0.18142
C          6.22168        15.15059        -0.39970
C          6.17618        16.42833         0.40759
C          7.48365        14.35895        -0.08558
C          7.36023        17.17725         0.67015
C          6.21485        19.43884         0.43191
C          7.37870        18.61788         0.69668
C          8.66779         2.09618        -0.66845
C          8.73299         3.56954        -1.09346
C          9.98110         1.40332        -0.88646
C          9.87245         4.24408        -0.38921
C          8.61832         6.34341        -0.45599
C          8.70556         7.79486        -0.60333
C          9.83389         5.62162        -0.12013
C          9.84844         8.47222         0.01886
C          8.62208        10.71471        -0.08626
C          8.45201        12.06068         0.60019
C          9.72975         9.86745         0.42195
C          9.78811        12.78326         0.77364
C          8.58001        15.03408         0.66222
C          8.59361        16.42721         0.79833
C          9.72647        14.23600         1.08337
C          9.84023        17.12708         1.03316
C          8.63654        19.26641         0.74817
C          9.85344        18.58147         0.91899
C         11.18264         2.04439        -0.58847
C         11.15325         3.52124        -0.36953
C         12.40060         1.34274        -0.49766
C         12.33108         4.20679         0.23201
C         10.98784         6.32205         0.36349
C         10.97689         7.74452         0.44484
C         12.12722         5.52883         0.98613
C         12.18415         8.49255         0.74569
C         10.95928        10.61226         0.90969
C         10.95361        12.09697         0.90345
C         12.21761         9.87300         0.80667
C         12.27477        12.72664         1.33670
C         11.05593        14.98169         1.37353
C         11.03066        16.43767         1.20285
C         12.31646        14.23758         1.14518
C         12.30919        17.16404         1.27843
C         11.08148        19.28252         0.91430
C         12.32467        18.61893         1.00395
C         13.58401         1.90895         0.16084
C         13.51328         3.36412         0.61153
C         14.92025         1.31607         0.06187
C         14.78471         4.07797         0.75196
C         13.46405         6.29357         1.06744
C         13.47747         7.78938         0.88716
C         14.75311         5.55941         0.90260
C         14.71602         8.50898         0.43428
C         13.43368        10.63540         0.53429
C         13.44665        11.98636         0.69691
C         14.51052         9.87165        -0.23453
C         14.49674        12.80508         0.00060
C         13.48510        14.90728         0.93514
C         13.58893        16.37558         1.11882
C         14.73205        14.16134         0.63207
C         14.81366        17.09417         0.68331
C         13.55155        19.26686         0.85825
C         14.79554        18.56541         0.68635
C         16.05322         1.99186         0.49853
C         15.97253         3.40556         0.82144
C         17.35145         1.36733         0.53542
C         17.18381         4.19035         1.26552
C         15.94154         6.23834         0.22478
C         15.98902         7.75915         0.25420
C         17.21041         5.56849         0.64493
C         17.15345         8.43560         0.04994
C         15.83299        10.62257        -0.49639
C         15.78073        12.08991        -0.33548
C         17.19087         9.85655        -0.41925
C         16.81656        12.89747        -0.77388
C         15.97988        14.92904         0.32288
C         15.94037        16.40454         0.34377
C         17.09856        14.24469        -0.38769
C         17.27405        17.07746         0.18116
C         15.95000        19.26028         0.39875
C         17.16639        18.58884        -0.17826
C         18.52565         2.06073         0.82120
C         18.51130         3.49123         1.06211
C         19.79515         1.38606         0.84082
C         19.68859         4.20582         1.17509
C         18.38674         6.37675         0.87488
C         18.44991         7.71421         0.20911
C         19.66157         5.69112         1.29957
C         19.73912         8.47462         0.25477
C         18.51060        10.55507        -0.34172
C         18.65712        11.86774        -0.81950
C         19.71054         9.93784         0.09653
C         19.72711        12.73120        -0.49060
C         18.34944        14.86328        -0.56357
C         18.21545        16.36866        -0.82727
C         19.62609        14.17063        -0.63759
C         19.55108        17.22138        -1.03308
C         18.48476        19.15623         0.24029
C         19.63599        18.50673        -0.14897
C         20.98555         2.06697         1.01911
C         20.97511         3.52442         1.12752
C         22.25514         1.37786         1.00962
C         22.16754         4.20862         1.20189
C         20.95217         6.45635         1.22962
C         20.97819         7.84946         0.74317
C         22.22954         5.68725         1.27750
C         22.17511         8.55466         0.66186
C         20.92291        10.66562         0.15468
C         20.92921        12.08294        -0.08387
C         22.17142         9.98343         0.40716
C         22.13382        12.83174        -0.04931
C         20.84873        14.90440        -0.59377
C         20.86101        16.37215        -0.88563
C         22.08755        14.23325        -0.33110
C         22.14154        17.10952        -0.54026
C         20.87048        19.18703        -0.01658
C         22.11753        18.57005        -0.24369
C         23.44897         2.02835         1.22573
C         23.43957         3.49866         1.59857
C         24.71798         1.36390         1.09510
C         24.71149         4.16040         0.97755
C         23.45061         6.36159         0.68116
C         23.44369         7.86819         0.82417
C         24.73915         5.66990         1.05509
C         24.63310         8.56726         0.79132
C         23.38132        10.69729         0.38079
C         23.37777        12.12908         0.17020
C         24.64233         9.99389         0.52341
C         24.59528        12.82477         0.09901
C         23.33941        14.96796        -0.22301
C         23.33843        16.35077        -0.14315
C         24.60089        14.25296        -0.07576
C         24.59722        17.08575         0.07671
C         23.29636        19.29203        -0.17708
C         24.59930        18.62241        -0.06758
C         25.93596         2.01996         1.14649
C         25.96907         3.48807         1.55027
C         27.14646         1.34367         0.79255
C         27.26368         4.22089         1.17906
C         25.93463         6.35968         1.00434
C         25.91730         7.84506         1.00189
C         27.20263         5.67620         0.89231
C         27.21721         8.56441         0.70226
C         25.84448        10.65965         0.24645
C         25.84669        12.09398         0.03725
C         27.13116         9.97888         0.23792
C         27.03074        12.76120        -0.23399
C         25.81114        14.94479        -0.17957
C         25.84954        16.37445        -0.23900
C         27.12320        14.23463         0.02148
C         27.01870        17.06816        -0.52563
C         25.82812        19.24085        -0.51560
C         27.02196        18.51228        -0.63676
C         28.35317         1.98336         0.57587
C         28.49978         3.44248         0.83172
C         29.45985         1.27403        -0.00460
C         29.73305         4.19633         0.31375
C         28.31631         6.33774         0.31542
C         28.32646         7.73310         0.18202
C         29.35382         5.49277        -0.43213
C         29.40316         8.44468        -0.50428
C         28.26947        10.61928        -0.17084
C         28.22094        12.00749        -0.75225
C         29.58756         9.89287        -0.07468
C         29.52983        12.75636        -0.66465
C         28.29865        14.89133        -0.63879
C         28.20538        16.31700        -1.09152
C         29.50980        14.18641        -0.76063
C         29.51113        17.05816        -0.95947
C         28.24499        19.17867        -0.92172
C         29.48399        18.48219        -0.97230
C         30.54459         1.91994        -0.53618
C         30.65531         3.34950        -0.54641
C         31.65639         4.00645        -1.21488
C         30.64552         6.20486        -0.82176
C         30.65491         7.67641        -0.95134
C         31.70524         5.44600        -1.22725
C         31.89171         8.43500        -0.97465
C         30.74880        10.59420        -0.73658
C         30.73972        12.03916        -0.80002
C         31.89290         9.82450        -1.00565
C         31.93894        12.77752        -1.02076
C         30.74345        14.90271        -0.97891
C         30.73775        16.36235        -0.98610
C         31.93155        14.16136        -1.10757
C         31.94133        17.10925        -0.99947
C         30.71250        19.19495        -1.01179
C         31.91944        18.50609        -1.02025
O         19.46102        17.79167        -2.29995
O         17.70590        12.35139        -1.70706
O         16.47550        10.06885        -1.69033
O         21.80339        16.74435        -1.93054
O          9.98332        10.06063         1.86776
O         15.76182        14.27269         1.65776
O          2.80890        10.17998        -1.97453
O         14.34451         8.48851         1.84798
O         14.29423         5.95165         2.22880
O         29.60939         8.16567        -1.90930
O          4.84357        17.95535         1.65826
O         13.25272         2.33013         1.58378
O         24.67716        17.92698         1.26128
O         12.17185         4.27206        -1.20593
O         19.27593         7.73480        -0.99818
O         21.73042         6.29812         2.49164
O          8.47047        10.74014        -1.52142
O         10.20498        14.49307         2.45644
O          2.39198         4.52000         0.47826
O         28.26828         3.85078         2.22717
O         18.81288         6.31156         2.33314
O          8.32728         8.18230        -1.99525
O         13.12384        16.79451         2.45005
O         26.76645         8.38281         2.07754
O          8.00572        13.64589        -1.27923
O         11.72744         5.21008         2.33529
H         12.54467         5.19419         2.88662
O         17.89618        17.00559         1.49679
H         17.52054        16.23815         1.98005
O         28.69740         5.11890        -1.67369
H         28.68298         5.91551        -2.24813
O          8.41883         2.11558         0.77665
H          8.38315         1.18822         1.09168
O         13.88374        13.13000        -1.29902
H         13.78306        12.29206        -1.80220
O         27.99719        11.83862        -2.20527
H         27.11158        11.43388        -2.32365
O         17.54067        16.32285        -2.09800
H         18.16101        16.77862        -2.73763
O         17.04308        18.80730        -1.60276
H         17.92565        18.57760        -2.03148
O         13.92737         9.63269        -1.54199
H         14.67691         9.47443        -2.16352
O          4.53438         5.89865        -2.49302
H          4.60267         6.85766        -2.69156
O         15.69310         5.94418        -1.20253
H         16.47260         6.24931        -1.71531
O         17.00211         4.36408         2.70841
H         17.65851         5.04480         3.00297
O         27.93921        16.25080        -2.55388
H         27.99665        17.16815        -2.89794
O         12.35374        12.51381         2.76890
H         11.65144        13.06669         3.18200
O         30.53880         4.58350         1.44792
H         29.94159         4.60272         2.23334
O         25.92260         3.52970         2.99725
H         26.85110         3.41147         3.31059
O         29.93016         9.80226         1.34649
H         29.93385        10.70801         1.72152
O         24.70404         3.82482        -0.43724
H         24.03322         4.40644        -0.87235
O         27.41390        14.34882         1.48136
H         26.61282        14.04569         1.96133
O         23.37812         3.61341         3.03656
H         24.25918         3.38345         3.41691
O          7.89795        11.83822         1.91471
H          8.54944        11.28277         2.40908
O          9.05980         3.56694        -2.51446
H          9.18986         4.49593        -2.80044
O          3.63399        12.60668        -2.45190
H          3.07335        11.91174        -2.87013
O         23.28579         6.13149        -0.77825
H         23.95564         6.67334        -1.24824
O          6.28469        15.55621        -1.79259
H          6.72033        14.81682        -2.27823
H          0.57094         1.22609        -2.04837
H          0.42043         3.14781        -0.42415
H          2.82018         0.41083        -2.74352
H          0.73816         6.13454         1.38062
H          0.63762         8.59239         0.97183
H          0.26427        10.30309         0.01387
H          0.30504        12.72129         0.03953
H          0.25541        14.66757        -0.25737
H          0.34640        17.09440         0.01920
H          1.58274        19.12009        -0.04272
H          5.24146         0.49158        -2.46791
H          3.52023        20.53565        -0.01803
H          7.52432         0.35633        -1.55268
H          6.37638        20.39683        -0.08487
H          9.98610         0.32360        -1.10644
H          8.66309        20.36345         0.66407
H         12.41941         0.27786        -0.77845
H         11.06768        20.37330         0.76769
H         15.01589         0.30244        -0.35614
H         13.56164        20.36106         0.73713
H         17.41385         0.28997         0.31866
H         15.91251        20.36030         0.35158
H         19.80944         0.29330         0.70963
H         18.54643        20.04003         0.89728
H         22.25341         0.29733         0.79357
H         20.85389        20.26467         0.21238
H         24.70845         0.29054         0.84180
H         23.25564        20.38662        -0.06398
H         27.07859         0.26896         0.55759
H         25.80624        20.29408        -0.83215
H         29.37965         0.18018        -0.09059
H         28.24925        20.27647        -0.98645
H         31.33227         1.33622        -1.03618
H         32.42371         3.44374        -1.76649
H         32.60778         5.92946        -1.63037
H         32.84910         7.89548        -0.96811
H         32.84818        10.32703        -1.21785
H         32.89625        12.25023        -1.12503
H         32.88582        14.67659        -1.28196
H         32.91225        16.59637        -1.00020
H         30.69775        20.29404        -1.01575
H         32.86722        19.06189        -1.03920
