         349
 CSIRO Nanostructure Databank - Neutral Graphene Oxide Data Set
C          1.28298         3.50161         0.66418
C          0.18295         4.27657         1.03261
C          1.08967         6.25357        -0.07255
C          0.10167         5.64506         0.72813
C          1.17072         7.71037        -0.29145
C         -0.02832         8.45129        -0.31571
C          1.16445        10.58336        -0.26591
C         -0.03836         9.83732        -0.33949
C          1.17050        12.02537        -0.18503
C         -0.06061        12.78428        -0.19825
C          1.11908        14.94847         0.01291
C         -0.10217        14.14086        -0.13489
C          1.13486        16.39985        -0.32478
C         -0.06104        17.10264        -0.50622
C          1.13341        19.20208        -0.79628
C         -0.06749        18.47822        -0.74045
C          1.10211        20.68108        -1.02136
C         -0.06821        21.45542        -0.57276
C          1.17656        23.58295        -0.61203
C         -0.04201        22.81056        -0.49279
C          1.17685        25.00363        -0.41150
C         -0.03423        25.78212        -0.36578
C          1.19638        27.89348        -0.15197
C         -0.01181        27.16093        -0.27813
C          1.23324        29.29622        -0.16143
C          3.61417         3.45700        -0.29089
C          2.32681         4.07878        -0.10318
C          3.87664         6.42844        -0.65677
C          2.08842         5.39459        -0.56776
C          3.69573         7.77987        -0.24324
C          2.41267         8.43261        -0.30223
C          3.63032        10.58786        -0.06032
C          2.39816         9.86542        -0.22506
C          3.63102        12.01942        -0.10586
C          2.39870        12.71540        -0.14798
C          3.64303        14.90196        -0.56810
C          2.41966        14.19504        -0.01752
C          3.64490        16.39679        -0.31613
C          2.37314        17.10072        -0.39459
C          3.64877        19.19751        -0.77572
C          2.34882        18.50665        -0.62234
C          3.69711        20.68035        -1.06630
C          2.40852        21.45398        -1.14852
C          3.62679        23.57544        -0.58694
C          2.40798        22.89091        -0.76979
C          3.61930        24.97130        -0.36149
C          2.41566        25.68223        -0.28532
C          3.67085        27.88937        -0.51171
C          2.48244        27.14110         0.13438
C          3.69026        29.35232        -0.09002
C          2.43735        30.01010        -0.06820
C          6.08497         3.46013        -0.27121
C          4.83276         4.16084        -0.29348
C          6.02460         6.24602         0.48353
C          4.89012         5.60275        -0.18602
C          6.07448         7.72623         0.46724
C          4.86232         8.46787         0.20936
C          6.00867        10.63299         0.68768
C          4.81897         9.88029         0.27232
C          6.03758        12.06706         0.36616
C          4.88465        12.75283        -0.00615
C          6.08442        14.93531        -0.02273
C          4.91338        14.20045        -0.15438
C          6.09590        16.36623        -0.07901
C          4.85654        17.07702        -0.18856
C          6.12507        19.29186        -0.32257
C          4.81989        18.59181        -0.02488
C          6.14319        20.68296        -0.55552
C          4.94730        21.40005        -0.78214
C          6.20606        23.61504        -0.59851
C          4.92281        22.87223        -0.80401
C          6.15058        24.95429         0.05962
C          4.86513        25.69782         0.00620
C          5.97652        27.87260         0.67791
C          5.03948        27.17834        -0.33134
C          6.13026        29.33386         0.28169
C          4.89644        30.02843         0.09031
C          8.49562         3.28196        -0.27434
C          7.31932         4.03647         0.04611
C          8.56126         6.24994         0.69971
C          7.32972         5.42141         0.62974
C          8.52153         7.65674         0.68284
C          7.29895         8.38418         0.66660
C          8.60286        10.56933         0.60963
C          7.32558         9.85553         0.87260
C          8.60364        12.05126         0.65554
C          7.29245        12.80182         0.56642
C          8.55506        14.94697         0.64260
C          7.40336        14.19635        -0.02833
C          8.55583        16.41242         0.25162
C          7.35879        17.07219         0.06595
C          8.62913        19.29004         0.23450
C          7.33297        18.55961         0.10714
C          8.69730        20.69266        -0.25213
C          7.45817        21.40397        -0.65468
C          8.53793        23.48632         0.38827
C          7.57648        22.94180        -0.68874
C          8.59303        25.00437         0.34178
C          7.40007        25.70944         0.24362
C          8.59986        27.85761         0.48885
C          7.34273        27.09887         0.85528
C          8.60615        29.28127         0.36429
C          7.35117        29.98076         0.27467
C         11.00287         3.00063        -0.22215
C          9.77757         3.48263         0.26621
C         11.04364         6.26681         0.73895
C          9.81485         5.61934         0.94379
C         10.98230         7.63330         0.12063
C          9.83748         8.41414         0.80558
C         10.96590        10.53421        -0.13563
C          9.73863         9.86104         0.35503
C         10.98689        12.04634        -0.24881
C          9.81937        12.81839         0.25505
C         10.97758        14.91163        -0.39666
C          9.84342        14.18161         0.30555
C         11.04428        16.40946        -0.12579
C          9.86723        17.10868         0.54006
C         11.10910        19.25843         0.19190
C          9.90744        18.57072         0.22391
C         11.12914        20.71013         0.21060
C          9.93215        21.43920         0.09307
C         11.09958        23.51379         0.56086
C          9.90136        22.82767         0.29426
C         11.05462        24.97880         0.95930
C          9.81042        25.70954         0.52522
C         11.04494        27.85589         0.09761
C          9.79885        27.12707         0.41116
C         11.08145        29.32318         0.25107
C          9.82675        29.98588         0.30024
C         13.50520         3.31894        -0.35103
C         12.26905         3.48160         0.23731
C         13.52410         6.22057         0.54999
C         12.26778         5.61133         0.86891
C         13.51603         7.67877         0.35476
C         12.31528         8.34444         0.20871
C         13.53041        10.54950        -0.01046
C         12.26114         9.77419        -0.16983
C         13.56046        12.03187        -0.10421
C         12.29947        12.77814        -0.38774
C         13.54977        14.90192        -0.13389
C         12.33370        14.24407        -0.22049
C         13.61611        16.34864         0.00252
C         12.35599        17.11749        -0.03626
C         13.56685        19.23182         0.44983
C         12.36990        18.55855         0.30332
C         13.59545        20.66982         0.48707
C         12.34903        21.39760         0.42215
C         13.60283        23.48077         0.87634
C         12.32281        22.80368         0.59528
C         13.57491        25.00457         0.94552
C         12.33844        25.68311         0.62897
C         13.59119        27.87559         0.48091
C         12.40872        27.07513         0.21186
C         13.56030        29.28380         0.39407
C         12.31181        29.98383         0.25838
C         15.91361         3.38986        -0.12476
C         14.71201         4.05155         0.05137
C         16.01535         6.20347         0.62516
C         14.69530         5.47291         0.40319
C         15.99944         7.68690         0.25838
C         14.79386         8.35706         0.16073
C         16.07797        10.55462        -0.32136
C         14.78787         9.77916        -0.23937
C         16.07136        12.04363        -0.21246
C         14.84474        12.76483        -0.23229
C         16.05626        14.88363        -0.04479
C         14.82072        14.16793        -0.13397
C         16.06602        16.30141         0.14106
C         14.80535        17.00863         0.21859
C         16.09023        19.16076         0.42299
C         14.81730        18.43402         0.74329
C         16.06409        20.61820         0.23280
C         14.81647        21.37702         0.43829
C         16.10142        23.51074         0.50675
C         14.87097        22.79063         0.56568
C         16.11306        24.99403         0.43437
C         14.83084        25.73657         0.60205
C         16.10159        27.88954         0.71475
C         14.81094        27.18801         1.03820
C         16.04087        29.34843         0.68223
C         14.77473        29.99766         0.58423
C         18.40788         3.39406        -0.54701
C         17.24451         4.00325         0.21024
C         18.51271         6.17157         0.15031
C         17.17241         5.50923        -0.11128
C         18.53916         7.68880         0.25428
C         17.25161         8.40771         0.13411
C         18.56196        10.50338        -0.03008
C         17.31282         9.79269        -0.05281
C         18.54347        11.97809         0.05955
C         17.28097        12.73317        -0.12383
C         18.52300        14.89329        -0.11713
C         17.29923        14.16966        -0.09268
C         18.52968        16.30088         0.06336
C         17.29034        17.00542         0.22527
C         18.55261        19.15408         0.36463
C         17.30238        18.45747         0.34873
C         18.57759        20.61743         0.75781
C         17.36092        21.37281         0.28889
C         18.57694        23.54534         0.39165
C         17.34273        22.84608         0.46826
C         18.59251        24.99131         0.28420
C         17.39152        25.74468         0.51737
C         18.51557        28.02776         0.97516
C         17.30962        27.18169         0.65868
C         18.56305        29.49847         0.52704
C         17.20127        30.11510         0.70674
C         19.53928         4.09671        -0.78686
C         20.87383         6.19344        -0.51019
C         19.69365         5.48507        -0.38094
C         20.92822         7.60216        -0.33419
C         19.79984         8.37464        -0.08545
C         20.99163        10.56570        -0.42031
C         19.78716         9.82280        -0.12473
C         21.01423        11.92101        -0.51086
C         19.85220        12.72982        -0.12373
C         21.03001        14.94185        -0.14469
C         19.79424        14.18937        -0.55177
C         21.00015        16.27403         0.10030
C         19.77097        17.02615         0.11068
C         20.99697        19.20706         0.23886
C         19.77358        18.45037         0.25668
C         21.01369        20.59116         0.25384
C         19.83903        21.36204         0.40047
C         21.03146        23.50530         0.15797
C         19.81715        22.78927         0.32574
C         21.02571        24.86794        -0.09109
C         19.82893        25.60394        -0.11110
C         18.95483        27.41026        -1.58909
C         19.87119        26.95775        -0.67066
C         18.89151        28.82672        -1.92153
C         18.81780        29.76712        -0.95617
O         15.39277        10.06353        -1.54036
O          3.90040        19.66223        -2.12529
O         11.48734         9.96053        -1.40505
O         11.57794        17.03736        -1.32647
O          7.83361        19.06120         1.46374
O          7.93408        12.56226         1.84861
O          9.80508         4.31973         1.41791
O         13.51152        11.33904         1.22473
O          2.94414         5.89794        -1.56597
O          1.61217        21.13480        -2.32383
O          6.42954         5.62755         1.75040
O         11.72490        27.37385        -1.06790
O         15.28183        25.48875        -0.75092
O         12.27035         4.32513         1.38818
O          8.32309        20.79267        -1.67302
O          5.61448        23.57392        -1.94312
O         19.32571        27.65136         1.82385
O         18.66620         6.81518         1.45051
O         16.82518        20.99325        -1.00619
O          1.90127        14.67389         1.24990
O         13.61868        24.20389         2.18579
O          6.54649        10.28543         2.02085
O         19.33886        12.48049         1.20724
O         11.51210        12.41261        -1.56563
O          5.33459        25.15679         1.29486
O         10.64958         7.44304        -1.27686
H         10.84700         8.29779        -1.73906
O          7.46581        26.82100         2.28912
H          6.73939        26.18517         2.49665
O         17.51002         3.79763         1.61800
H         16.87618         4.36701         2.12131
O          3.40231        27.89438        -1.94002
H          2.56627        28.38670        -2.08736
O         10.18851         8.46985         2.21429
H          9.45254         8.89597         2.70355
O         14.67845        27.18993         2.50087
H         15.51933        26.86431         2.88621
O         19.77197        14.14740        -2.01953
H         19.76940        15.07311        -2.34331
O         16.88716         5.65803        -1.52123
H         17.52196         5.10371        -2.02339
O          7.71727        14.02579        -1.44131
H          8.65372        14.28997        -1.62354
O          3.53503        14.71744        -2.02321
H          4.34770        15.08323        -2.43347
O         10.97534        24.96266         2.43713
H         11.86329        24.65240         2.75167
O         10.57324        14.78849        -1.79753
H         11.06466        15.48747        -2.29274
O          8.33479        14.96529         2.06690
H          9.04745        15.52493         2.45930
O          2.67767        27.16196         1.56960
H          1.94161        26.66740         1.98480
O         18.48826        20.63967         2.23105
H         19.31669        20.24783         2.58077
O         10.10198        16.99906         1.99347
H          9.50849        17.66201         2.41544
O         20.94559        27.73429        -0.34990
H         21.39410        27.36513         0.43647
O         19.54865        30.16539         1.32389
H         19.96301        29.46400         1.88191
O          7.97528        23.11648         1.67217
H          8.52686        23.52435         2.37408
O          5.76507        27.20852        -1.57554
H          5.10928        27.31091        -2.30393
O          8.16827        23.33818        -1.93079
H          7.50302        23.17815        -2.63697
O         14.81180        18.27622         2.21518
H         15.65591        17.84560         2.47020
O          4.53555        18.85979         1.38845
H          5.33188        18.61126         1.90653
O         16.21873         6.11193         2.06283
H         17.10804         6.51662         2.24845
O          5.28890        27.88769         1.93697
H          5.91778        28.20513         2.61992
H          1.37297         2.46617         1.02138
H         -0.60685         3.82363         1.64791
H         -0.72150         6.24361         1.14263
H         -0.98622         7.91225        -0.32388
H         -1.00773        10.35063        -0.37855
H         -1.01206        12.24485        -0.30031
H         -1.07446        14.64519        -0.22746
H         -1.02379        16.57656        -0.46040
H         -1.02903        18.98631        -0.89294
H         -0.99342        20.92178        -0.31216
H         -0.96374        23.33334        -0.20134
H         -1.00382        25.28005        -0.48240
H         -0.95846        27.71877        -0.34744
H          0.28442        29.85208        -0.21610
H          3.67000         2.36252        -0.17493
H          2.40712        31.10312         0.05415
H          6.07348         2.39852        -0.56184
H          4.89146        31.12969         0.14489
H          8.36711         2.45010        -0.98400
H          7.38005        31.06531         0.08394
H         10.99127         2.35477        -1.11118
H          9.80686        31.08553         0.26878
H         13.62554         2.56238        -1.14032
H         12.32734        31.08318         0.29653
H         15.89129         2.33893        -0.45340
H         14.75284        31.09774         0.57768
H         18.34697         2.33431        -0.83824
H         17.12657        31.21343         0.67819
H         20.39403         3.61313        -1.28478
H         21.78270         5.67370        -0.84668
H         21.89460         8.09096        -0.51752
H         21.90222        10.00725        -0.67645
H         21.90829        12.42768        -0.90162
H         21.99016        14.40634        -0.13105
H         21.94383        16.78789         0.32976
H         21.95396        18.68396         0.11737
H         21.98374        21.08777         0.11265
H         21.99155        22.97469         0.14739
H         21.96744        25.37471        -0.34923
H         18.21704        26.71448        -2.01272
H         18.88798        29.13242        -2.98244
H         18.79922        30.83236        -1.23340
