         294
 CSIRO Nanostructure Databank - Neutral Graphene Oxide Data Set
C          1.26406         1.97254        -0.52179
C          1.35381         3.38242        -0.73680
C          2.37007         1.26702        -0.14902
C          2.49266         4.09848        -0.45069
C          1.34792         6.34837        -0.96477
C          1.26939         7.65280        -0.65484
C          2.61788         5.52064        -1.02575
C          2.42030         8.42580        -0.11340
C          1.37245        10.70163        -0.76600
C          1.45480        12.02306        -0.98178
C          2.47555         9.96858        -0.03062
C          2.63339        12.80944        -0.44582
C          1.64432        15.02368        -1.28660
C          1.75052        16.31437        -1.71761
C          2.79206        14.24292        -0.92598
C          3.10257        16.93617        -1.89286
C          3.12018        18.44670        -1.84738
C          3.60648         1.94580         0.15148
C          3.64150         3.40679         0.12982
C          4.76569         1.21137         0.31872
C          4.79114         4.08062         0.54428
C          3.81752         6.26256        -0.45398
C          3.71954         7.70627        -0.06022
C          4.86179         5.54884         0.34036
C          5.00376         8.44330         0.15106
C          3.82762        10.45658        -0.65601
C          3.91336        11.98966        -0.67799
C          5.05117         9.78717        -0.04201
C          5.19601        12.70209        -0.42318
C          4.03312        14.88540        -0.74458
C          4.08212        16.40076        -0.82556
C          5.20256        14.18571        -0.39104
C          5.43799        16.93588        -1.11565
C          4.29104        19.08611        -1.72891
C          5.59526        18.32007        -1.67222
C          6.00782         1.83058         0.75847
C          5.99649         3.35459         1.00640
C          7.29449         1.20416         0.44023
C          7.33598         4.02679         0.94445
C          5.68013         6.40737         1.23186
C          5.98773         7.71633         0.94674
C          7.45872         5.34330         1.51417
C          7.19309         8.39911         1.47990
C          6.12789        10.58336         0.67757
C          6.44912        11.94775        -0.00773
C          7.45007         9.78256         0.88430
C          7.36343        12.76397         0.92303
C          6.46933        14.83186        -0.21238
C          6.67340        16.25425        -0.69214
C          7.51651        14.17392         0.39973
C          7.31445        17.13058         0.46405
C          6.69020        19.08984        -0.97321
C          7.53729        18.53997        -0.05796
C          8.46594         1.93972         0.26797
C          8.45027         3.39251         0.42829
C          9.69578         1.27433         0.01523
C          9.66390         4.19464         0.15671
C          8.53689         6.18377         1.37736
C          8.52013         7.62437         1.73256
C          9.70913         5.62946         0.65921
C          9.80655         8.41562         1.68088
C          8.50273        10.58952         1.70494
C          8.66867        12.00891         1.15532
C          9.81697         9.78959         1.75750
C          9.76394        12.84538         1.78097
C          8.66345        14.93906         0.92265
C          8.59529        16.43306         0.93787
C          9.99265        14.18686         1.01494
C          9.93394        17.12038         0.69656
C          8.68931        19.27272         0.41391
C          9.85657        18.63060         0.79280
C         10.91154         1.95418        -0.22753
C         10.94131         3.47112        -0.30535
C         12.07350         1.27593        -0.54903
C         12.23617         4.01190         0.31547
C         10.98708         6.12108         1.31218
C         11.08180         7.63382         1.56722
C         12.29327         5.42734         0.81609
C         12.38653         8.36283         1.39811
C         11.09175        10.55718         1.88511
C         11.09293        12.08942         1.92652
C         12.39778         9.86350         1.57421
C         12.40634        12.83792         1.86311
C         11.08767        15.02646         1.67317
C         11.06509        16.51199         1.52141
C         12.47261        14.37916         1.82486
C         12.41895        17.24401         1.52089
C         11.07137        19.34059         0.97139
C         12.30323        18.67407         1.03544
C         13.28489         2.01468        -1.04519
C         13.51368         3.31948        -0.19449
C         14.58921         1.28557        -0.89957
C         14.43643         4.28141        -0.95253
C         13.47665         6.25213         0.35348
C         13.50290         7.72512         0.62047
C         14.78171         5.52984        -0.07815
C         14.85254         8.42380         0.72586
C         13.47390        10.70099         0.89010
C         13.73112        12.07304         1.61729
C         14.77507         9.94538         0.63620
C         14.74656        12.86257         0.77987
C         13.43541        14.97336         0.79306
C         13.45111        16.47085         0.67266
C         14.65056        14.19281         0.47763
C         14.81827        17.15481         0.57578
C         13.50574        19.34880         0.79839
C         14.74823        18.70724         0.54176
C         15.77646         2.03410        -0.96150
C         15.74243         3.49044        -1.43520
C         16.97978         1.43350        -0.62032
C         17.01714         4.24468        -1.06366
C         15.70122         6.48324        -0.87546
C         15.92900         7.80663        -0.15209
C         17.00041         5.73430        -1.23141
C         17.06786         8.51547        -0.40758
C         15.90864        10.65636         0.36735
C         15.93939        12.11233         0.39494
C         17.06697        10.02515        -0.37418
C         17.10476        12.78401         0.04347
C         15.65228        14.85879        -0.45200
C         15.78927        16.37168        -0.31154
C         17.02202        14.18521        -0.42940
C         16.90472        16.97159        -0.83763
C         15.87565        19.53392         0.54775
C         17.09091        19.13598        -0.11116
C         18.30911         2.11524        -0.71462
C         18.18272         3.62928        -0.76117
C         19.23255         1.69645         0.40908
C         19.38877         4.46813        -0.35380
C         18.28697         6.48449        -1.37211
C         18.21664         7.93897        -1.06788
C         19.63737         5.67345        -1.30470
C         19.29492         8.75044        -1.37824
C         18.41395        10.62309         0.00630
C         18.37406        12.12058        -0.10487
C         19.54027        10.03797        -0.81793
C         19.55798        12.80990        -0.27890
C         18.29669        14.94724        -0.60979
C         18.26393        16.42623        -0.79448
C         19.54157        14.30050        -0.02359
C         19.40711        17.18686        -0.72863
C         18.41543        19.36475         0.06967
C         19.39732        18.72024        -0.91241
C         20.32919         2.40906         0.68791
C         20.66873         3.60966        -0.16482
C         21.73883         4.48828         0.43785
C         20.89375         6.42536        -0.83344
C         21.18733         7.66713        -1.34582
C         21.82208         5.78896         0.08497
C         22.24065         8.60499        -1.01749
C         20.78564        10.67867        -0.84556
C         20.80396        12.12879        -0.58682
C         22.04248         9.96270        -0.97501
C         21.92481        12.90629        -0.82257
C         20.78348        15.04654        -0.42922
C         20.72194        16.55513        -0.24030
C         21.89981        14.34102        -0.76643
C         21.93934        17.27576        -0.74381
C         20.74525        19.37193        -0.79139
C         21.92902        18.65706        -0.85654
O          7.63293         8.07448         2.80382
O          2.87972         7.83100         1.16118
O          6.34562         5.75335         2.27773
O         12.95684        17.34846         2.82377
O         12.05688         7.74989         2.67445
O         13.04962         7.22727        -0.66023
O          8.34976        15.69775         2.16248
O         16.75632        18.31217        -1.21681
O         17.70785        14.25759        -1.75405
O          9.47918         5.38092        -0.74463
O         11.78843        12.50417         3.14414
O         12.45129         4.28139         1.72566
O         12.03652        10.14431         2.93773
O          5.07340         5.93979        -1.10470
O         17.50506         6.11565        -2.57636
O         20.24799         8.21024        -2.25372
O         10.70614        15.88761         2.77688
O          4.74157        12.36983        -1.82439
O          5.86935         2.43207         2.11441
O         12.88660        15.67827        -0.39383
O          2.47793        12.96955         0.98791
H          2.40227        12.06695         1.39465
O          5.51064        10.81520         1.95692
H          6.22723        10.95658         2.62909
O         13.72671         4.76477        -2.09501
H         12.88458         4.24739        -2.20969
O          3.67163        16.95999         0.45592
H          4.46744        16.98859         1.04277
O         16.86056        10.41042        -1.76613
H         16.04674         9.96965        -2.09019
O         21.15510         3.11511        -1.42800
H         20.96593         3.79479        -2.11865
O         18.65716        10.26212         1.39504
H         19.49412        10.68435         1.68020
O         10.44988        13.86038        -0.30737
H         10.74208        14.69560        -0.74675
O         20.72355        16.79554         1.21095
H         20.06224        16.16797         1.60012
O         10.73216         5.59806         2.64737
H         11.37920         6.02342         3.25621
O         19.38631        14.46546         1.43744
H         20.10588        13.95966         1.87172
O          7.66771        16.26731        -1.75810
H          7.31669        16.85696        -2.47668
O          6.37959        17.18373         1.54559
H          6.73534        16.59110         2.25534
O         15.08817         6.87761        -2.11484
H         15.81543         6.96275        -2.77516
O          2.87176         5.32759        -2.44407
H          3.84822         5.24595        -2.54538
O         15.25600         8.15379         2.10303
H         16.09381         8.63236         2.28025
O         13.02726        14.71944         3.10425
H         12.91079        15.70830         3.24887
O         15.67393         3.42294        -2.87942
H         15.15259         4.21861        -3.16036
O          3.65881        16.51538        -3.18253
H          2.94748        16.57559        -3.85462
O          7.99750        10.72915         3.06185
H          8.52035        11.44691         3.49690
O          6.72214        12.99368         2.21200
H          7.41524        13.37610         2.80410
O         15.54371         5.14063         1.06607
H         15.18366         4.27975         1.39740
O         11.11901         3.77949        -1.71701
H         10.57395         4.58081        -1.91243
O         14.23915         2.83792         0.97406
H         13.64843         2.93999         1.75828
O          8.03607         9.45498        -0.39131
H          8.08060        10.28382        -0.93279
O         15.11183        14.64401        -1.78878
H         15.88009        14.63947        -2.40604
O          9.32281        13.18338         3.13197
H         10.14120        13.42267         3.63693
O         19.90482         5.19836        -2.63500
H         19.05729         5.26108        -3.14023
O         15.38149        16.93165         1.90815
H         14.62388        17.12506         2.54925
O         18.87845         1.66491        -1.98047
H         18.29689         1.99551        -2.69757
O          7.21150        11.76261        -1.22425
H          6.56847        11.74313        -1.97109
O          3.73371        10.01159        -2.03178
H          4.31758        10.59717        -2.56562
O         14.34345        11.80713         2.87925
H         13.61492        11.72938         3.53926
O         19.01222        19.02681        -2.27564
H         18.05366        18.80554        -2.36367
O         10.25990        16.79655        -0.69102
H          9.42260        16.79731        -1.22338
O         12.91244        10.99992        -0.41611
H         13.54997        11.55642        -0.91377
O          2.41154        10.32320         1.35825
H          2.87113         9.60655         1.86133
O         19.06668         5.07025         0.92413
H         18.85906         4.35382         1.55995
O          6.04773        18.10737        -3.06995
H          5.32463        17.57811        -3.49288
O         13.10660         2.27227        -2.46378
H         13.99919         2.44526        -2.85475
H          0.31747         1.45863        -0.73837
H          0.48912         3.88414        -1.19245
H          2.33939         0.17153        -0.06257
H          0.43625         5.85534        -1.33479
H          0.29187         8.15470        -0.72090
H          0.50431        10.13948        -1.14140
H          0.64638        12.53934        -1.52145
H          0.64704        14.56726        -1.20582
H          0.84945        16.90581        -1.94054
H          2.17256        19.00473        -1.90722
H          4.76011         0.13169         0.10411
H          4.33540        20.18553        -1.70759
H          7.30854         0.12330         0.23203
H          6.86760        20.11977        -1.32084
H          9.69647         0.17431        -0.01509
H          8.69211        20.36774         0.29674
H         12.07882         0.17476        -0.55176
H         11.05473        20.44109         0.91042
H         14.62828         0.21262        -0.65459
H         13.46457        20.43974         0.63679
H         16.97501         0.36739        -0.34138
H         15.77714        20.56190         0.93331
H         18.97515         0.79658         0.98927
H         18.78805        19.95085         0.92042
H         21.00880         2.10852         1.50106
H         22.49701         4.04120         1.09814
H         22.64842         6.40941         0.46651
H         23.25732         8.22341        -0.83410
H         22.94711        10.56519        -0.80063
H         22.87253        12.44189        -1.12463
H         22.83377        14.85576        -1.03279
H         22.89692        16.74386        -0.82297
H         20.76706        20.46976        -0.85412
H         22.87875        19.19459        -1.00229
