         424
 CSIRO Nanostructure Databank - Neutral Graphene Oxide Data Set
C          1.27127         3.44901        -0.02647
C          0.07615         4.15166         0.07183
C          1.23539         6.24930        -0.42862
C          0.05478         5.53673        -0.10499
C          1.22688         7.70036        -0.58069
C          0.02744         8.43115        -0.59711
C          1.23204        10.56045        -0.66431
C          0.02262         9.81790        -0.65119
C          1.21671        12.00981        -0.65975
C          0.01430        12.75299        -0.68123
C          1.23597        14.86451        -0.67499
C          0.01977        14.13763        -0.67214
C          1.24618        16.33863        -0.75635
C          0.09454        17.05901        -1.12457
C          1.28516        19.17051        -0.89862
C          0.12195        18.45045        -1.19497
C          1.29369        20.67251        -1.06204
C          0.04001        21.34751        -0.56516
C          1.25471        23.45896        -0.33292
C          0.03559        22.67631        -0.31210
C          1.23683        24.88080        -0.24714
C          0.01976        25.62085        -0.29475
C          1.22118        27.74088        -0.12955
C          0.01349        26.99571        -0.22661
C          1.20496        29.19190        -0.07500
C          0.04618        29.93569        -0.03418
C          1.22418        32.09241         0.12059
C          0.05697        31.36236        -0.00208
C          1.25701        33.55415         0.12601
C          0.03969        34.32279        -0.02989
C          1.26124        36.45037        -0.00029
C          0.02102        35.68066         0.05386
C          1.30437        37.86076         0.41400
C          3.72057         3.44146        -0.31306
C          2.47981         4.13407        -0.31626
C          3.69147         6.22927        -1.03724
C          2.44795         5.53914        -0.54745
C          3.68525         7.71139        -0.78138
C          2.47696         8.41204        -0.67968
C          3.70803        10.59043        -0.62974
C          2.46556         9.86060        -0.68246
C          3.68143        11.99993        -0.51630
C          2.45375        12.72433        -0.59511
C          3.72717        14.93085        -0.78092
C          2.44228        14.15243        -0.62084
C          3.65061        16.27747        -0.06135
C          2.43293        17.05432        -0.49445
C          3.71667        19.18958        -0.34639
C          2.46843        18.46776        -0.56413
C          3.72600        20.61738        -0.32405
C          2.52458        21.34865        -0.50729
C          3.72273        23.47614        -0.10293
C          2.49989        22.75533        -0.33271
C          3.70518        24.88891        -0.01445
C          2.46689        25.60780        -0.12693
C          3.69318        27.75415         0.14034
C          2.44941        27.02957        -0.08234
C          3.68969        29.12841         0.24684
C          2.51595        29.92837        -0.24564
C          3.63118        32.02903         0.59356
C          2.49246        31.37303         0.22311
C          3.59078        33.46764         1.03282
C          2.45539        34.20757         0.37660
C          3.79320        36.35878         0.60196
C          2.58595        35.64172         0.15750
C          3.77290        37.80768         0.47062
C          2.48801        38.49231         0.58262
C          6.17041         3.46023        -0.12661
C          4.94773         4.14931        -0.34565
C          6.18019         6.28134        -0.48662
C          4.96056         5.55748        -0.57786
C          6.20898         7.70032        -0.64422
C          4.96498         8.44092        -1.08477
C          6.19937        10.57746        -0.61619
C          4.95752         9.89318        -0.68478
C          6.21079        12.00893        -0.38717
C          4.92185        12.71096        -0.04831
C          6.13562        14.88061        -0.17207
C          4.96624        14.18155        -0.35486
C          6.14834        16.34190        -0.16187
C          4.94618        17.04701        -0.19099
C          6.17427        19.17954        -0.05039
C          4.93542        18.47467        -0.18169
C          6.17940        20.60474         0.01172
C          4.95582        21.32411        -0.08762
C          6.17837        23.45055         0.19555
C          4.95790        22.75170         0.00167
C          6.17234        24.88497         0.27098
C          4.93747        25.60497         0.17306
C          6.16983        27.72151         0.39274
C          4.93606        27.01596         0.27695
C          6.18993        29.13518         0.56794
C          4.90164        29.81984         0.71511
C          6.17813        32.03325         0.86554
C          4.89427        31.30704         0.88379
C          6.16864        33.46319         1.00424
C          4.92807        34.18607         0.95693
C          6.07483        36.21367         1.74024
C          4.91560        35.60616         1.01614
C          6.20999        37.99881         0.00584
C          4.90464        38.57912         0.26714
C          8.62179         3.44364         0.07583
C          7.39436         4.14468        -0.07884
C          8.63400         6.28357        -0.16167
C          7.40095         5.57815        -0.21641
C          8.64991         7.67374        -0.40261
C          7.43025         8.40345        -0.59114
C          8.68723        10.58190        -0.78292
C          7.42287         9.84738        -0.69441
C          8.67320        12.08459        -0.54226
C          7.38051        12.73932        -0.29384
C          8.59724        14.86389         0.07547
C          7.39370        14.16735        -0.06359
C          8.60799        16.30996         0.15720
C          7.39236        17.03603        -0.01059
C          8.63743        19.15682         0.23332
C          7.40099        18.45829         0.06446
C          8.65026        20.58923         0.24336
C          7.41966        21.30440         0.15822
C          8.65627        23.41042         0.36723
C          7.42163        22.72804         0.25329
C          8.68242        24.88399         0.67637
C          7.38600        25.59821         0.39620
C          8.65005        27.73639         0.42962
C          7.40099        27.00280         0.39789
C          8.63506        29.15740         0.54818
C          7.38914        29.86187         0.65712
C          8.63390        32.01497         0.78738
C          7.38447        31.30882         0.79335
C          8.63968        33.43861         0.97120
C          7.41791        34.13555         1.13558
C          8.60330        36.33630         0.98710
C          7.46671        35.56082         1.65293
C          8.58826        37.68122         0.62737
C          7.34868        38.46689         0.60149
C         11.07492         3.41059         0.25607
C          9.85500         4.11659         0.15414
C         11.07319         6.24845         0.29201
C          9.87168         5.56607         0.09226
C         11.13228         7.67862         0.10947
C          9.95868         8.34143        -0.47498
C         11.14512        10.55221        -0.02630
C          9.99355         9.86755        -0.59834
C         11.02300        11.95223         0.50790
C          9.87602        12.75231        -0.04137
C         11.06257        14.81040         0.50843
C          9.84661        14.12498         0.18866
C         11.02074        16.24789         0.75171
C          9.80586        17.01064         0.42512
C         11.10806        19.14703         0.47650
C          9.84977        18.43199         0.40649
C         11.12785        20.57648         0.40366
C          9.88829        21.29290         0.32340
C         11.13996        23.44809         0.33832
C          9.88245        22.72048         0.33425
C         11.15129        24.85835         0.26696
C          9.85021        25.57300        -0.01668
C         11.09933        27.74651         0.29986
C          9.87461        27.04942         0.29645
C         11.09417        29.17308         0.39938
C          9.86305        29.87503         0.52352
C         11.09681        32.01325         0.57909
C          9.85916        31.30603         0.63399
C         11.08336        33.43897         0.74882
C          9.89966        34.13650         0.96963
C         11.00708        36.23029         0.21012
C          9.95002        35.65137         1.15848
C         11.03095        37.73939         0.19690
C          9.80337        38.38905         0.34660
C         13.52816         3.37651         0.45930
C         12.31794         4.07531         0.42826
C         13.48295         6.23685         0.73867
C         12.31312         5.53211         0.54049
C         13.44907         7.71299         1.01047
C         12.29008         8.40104         0.34285
C         13.53593        10.54416         0.56884
C         12.31032         9.83835         0.27050
C         13.54194        11.98959         0.48272
C         12.32180        12.70499         0.46596
C         13.55816        14.84604         0.46109
C         12.30732        14.12004         0.51694
C         13.58264        16.24777         0.46832
C         12.36037        17.00460         0.75837
C         13.58003        19.12846         0.41242
C         12.33659        18.45015         0.51595
C         13.59971        20.56189         0.41751
C         12.37131        21.27779         0.43260
C         13.58803        23.44389         0.36764
C         12.37645        22.73049         0.38956
C         13.60480        24.86741         0.33452
C         12.35780        25.58401         0.29591
C         13.55932        27.75210         0.28944
C         12.35135        27.03051         0.27617
C         13.55706        29.16689         0.22644
C         12.32681        29.89148         0.32207
C         13.57742        32.02544         0.21776
C         12.32174        31.31220         0.37637
C         13.59983        33.40942         0.30587
C         12.38878        34.14183         0.68927
C         13.54726        36.31370        -0.09695
C         12.37372        35.63424         0.49348
C         13.44954        37.71157        -0.36733
C         12.21670        38.40380        -0.14414
C         16.08503         3.38513         0.53103
C         14.78177         4.03309         0.80399
C         16.00791         6.31812         0.69063
C         14.76615         5.55342         0.93501
C         16.00656         7.70631         0.75232
C         14.76568         8.42987         0.83413
C         16.00658        10.60486         1.02469
C         14.74257         9.82390         0.77029
C         16.02186        11.88775         0.17294
C         14.76258        12.69723         0.35618
C         16.00195        14.81987         0.04063
C         14.78865        14.10975         0.27555
C         16.03216        16.23006         0.05756
C         14.79803        16.97717         0.26444
C         16.11874        19.09899         0.43882
C         14.79464        18.38022         0.32638
C         16.05638        20.58557         0.15690
C         14.85979        21.25880         0.33601
C         16.09642        23.45300         0.09748
C         14.88698        22.73250         0.62968
C         16.06805        24.86814         0.08965
C         14.84178        25.56745         0.28656
C         16.05718        27.76352        -0.01998
C         14.86630        27.04839         0.56994
C         16.00893        29.12259        -0.22584
C         14.79415        29.88082         0.01812
C         16.01636        32.01010        -0.34003
C         14.79427        31.27636        -0.02626
C         15.99558        33.40229        -0.38925
C         14.88762        34.19495         0.24267
C         15.86660        36.31574        -0.79694
C         14.74420        35.61518        -0.29679
C         15.80805        37.71103        -1.00916
C         14.61319        38.39741        -0.79374
C         18.49807         3.43759         0.13696
C         17.22202         4.10354         0.32892
C         18.49020         6.31229         0.28172
C         17.17692         5.59945         0.07014
C         18.51945         7.71032         0.47458
C         17.26825         8.45491         0.66305
C         18.52194        10.58001         0.62303
C         17.28166         9.82661         0.79645
C         18.52056        11.90717         0.29571
C         17.26855        12.73367         0.47434
C         18.53242        14.80752        -0.09835
C         17.24840        14.04625        -0.33033
C         18.50679        16.23495        -0.08875
C         17.26062        16.92189        -0.10753
C         18.52698        19.12028        -0.17941
C         17.21084        18.40607        -0.36538
C         18.49115        20.54550        -0.26899
C         17.29336        21.28025        -0.11278
C         18.49771        23.46095        -0.37644
C         17.29552        22.73484        -0.16592
C         18.52236        24.88260        -0.27263
C         17.29326        25.60810        -0.11911
C         18.51312        27.72948        -0.40690
C         17.28463        27.01687        -0.20803
C         18.50376        29.13779        -0.59303
C         17.18439        29.81812        -0.87088
C         18.44839        32.00315        -0.81664
C         17.22082        31.30341        -0.64226
C         18.44838        33.42500        -0.94671
C         17.14522        34.10033        -0.96811
C         18.37203        36.32355        -1.24818
C         17.09304        35.58252        -1.18587
C         18.33014        37.72834        -1.33897
C         17.01599        38.45299        -1.53930
C         19.65554         4.13603         0.01380
C         20.92046         6.27017         0.15810
C         19.69221         5.58504         0.13429
C         20.95142         7.65003         0.34815
C         19.76859         8.38335         0.51529
C         21.03509        10.60879         0.51773
C         19.80649         9.84437         0.93624
C         21.01237        11.86480         0.05816
C         19.73903        12.59787        -0.27124
C         20.94207        14.83746         0.10513
C         19.74030        14.10342        -0.02135
C         20.93855        16.22582         0.09692
C         19.74066        16.96458        -0.02592
C         20.97131        19.16358        -0.06450
C         19.73204        18.41394        -0.08405
C         21.00002        20.48616        -0.35928
C         19.75553        21.22477        -0.61454
C         21.00542        23.50795        -0.56142
C         19.75139        22.75806        -0.69975
C         20.99221        24.85105        -0.38075
C         19.75817        25.59596        -0.33097
C         20.96311        27.77800        -0.44476
C         19.75691        27.02035        -0.37531
C         20.93952        29.14416        -0.57856
C         19.70903        29.85662        -0.69268
C         20.87118        32.04639        -1.08656
C         19.69427        31.29893        -0.88080
C         20.85040        33.43079        -1.20155
C         19.63684        34.15792        -1.12928
C         20.79434        36.38686        -1.25403
C         19.60701        35.62685        -1.21976
C         20.75314        37.77721        -1.32315
C         19.52939        38.45008        -1.37813
O          8.77678        11.52745        -1.90791
O         11.67761        16.63543         2.00861
O         16.84756        34.69235        -2.33921
O          4.73679        30.43463         2.08052
O         12.62440        35.09138         1.82182
O         14.78898         4.69655         2.14447
O          2.10185        36.11561        -1.14652
O          5.87812        37.03637         2.62953
O         10.27195         9.00509        -1.74749
O         19.70518        21.92066        -1.91408
O         10.37011        35.96122         2.50566
H          9.63154        35.67842         3.10078
O          9.61576        25.45220        -1.45119
H         10.36272        25.88266        -1.91722
O          2.71275        30.01643        -1.71109
H          1.91277        30.44695        -2.08218
O         16.95925        29.65817        -2.32990
H         17.67729        30.14513        -2.78852
O          1.32854        20.90408        -2.52077
H          1.36472        21.87503        -2.65659
O          3.69080         6.07248        -2.54455
H          2.77386         6.24979        -2.84808
O         17.25384        13.17551         1.85262
H         17.05900        12.38780         2.41959
O          5.05089         8.44961        -2.56814
H          4.77143         7.54369        -2.86402
O          4.82241        12.65187         1.43674
H          4.16840        13.33310         1.70839
O         10.67239        11.77260         1.94929
H         10.69984        12.66227         2.36430
O          3.87480        15.22254        -2.20030
H          3.93068        14.37215        -2.68382
O         19.58735        12.47901        -1.74642
H         20.39149        12.86537        -2.15487
O          3.49325        15.96561         1.35977
H          3.43973        16.81376         1.84840
O          6.28371        36.90898        -0.82163
H          5.40399        36.73718        -1.21521
O          8.92708        25.00529         2.11144
H          8.18131        24.57825         2.58242
O         16.92287         5.69498        -1.38704
H         17.71178         5.32881        -1.84124
O         17.17225        13.76558        -1.76203
H         18.02908        13.32270        -2.00871
O         16.06266        11.42857        -1.19427
H         16.20944        12.22656        -1.76291
O         13.17576         7.80487         2.46812
H         13.74754         7.14152         2.91261
O         15.05071        22.78563         2.11381
H         15.12357        23.73448         2.35642
O          7.83711        35.44767         3.07309
H          7.36010        36.18584         3.52760
O         15.98226        10.94093         2.45090
H         15.06635        11.20833         2.68091
O         15.03895        27.14677         2.04117
H         14.19958        26.84836         2.45252
O         19.86532         9.80590         2.40333
H         19.02464         9.41228         2.72114
O          3.27673        33.43165         2.47529
H          3.82711        32.72324         2.87570
O         15.29506        34.39002         1.64978
H         14.49368        34.74744         2.11079
O         16.51385        18.99865         1.84100
H         15.86806        19.50946         2.37390
O         10.64312        35.80485        -1.13365
H         11.12086        36.36989        -1.77624
O         16.84697        18.56231        -1.77194
H         17.55846        18.16619        -2.31717
O         16.83725        38.66997        -2.95660
H         16.81228        37.79235        -3.39211
H          1.29398         2.36267         0.14113
H         -0.85610         3.62057         0.31000
H         -0.89759         6.06911         0.01832
H         -0.93759         7.90762        -0.56804
H         -0.94468        10.33615        -0.65832
H         -0.95430        12.23657        -0.70868
H         -0.94061        14.67075        -0.67884
H         -0.83408        16.53197        -1.38201
H         -0.78523        18.98338        -1.51148
H         -0.90027        20.77980        -0.51628
H         -0.90805        23.16737        -0.03455
H         -0.93732        25.09274        -0.39914
H         -0.95033        27.52049        -0.27181
H         -0.93546        29.44152        -0.02287
H         -0.91596        31.87080        -0.03210
H         -0.91848        33.78614        -0.06262
H         -0.93271        36.22116         0.14615
H          0.35395        38.39258         0.56954
H          3.73024         2.35492        -0.14430
H          2.51027        39.56783         0.81452
H          6.15299         2.36784         0.00153
H          4.83062        39.67179         0.37714
H          8.60223         2.34491         0.13271
H          7.30641        39.40065         1.17866
H         11.05790         2.31066         0.23226
H          9.75045        39.48037         0.21629
H         13.54703         2.31123         0.18353
H         12.20495        39.49906        -0.25133
H         16.13326         2.28457         0.56793
H         14.56604        39.48131        -0.97382
H         18.50999         2.33720         0.12181
H         17.06805        39.46875        -1.07063
H         20.61051         3.60638        -0.11772
H         21.85836         5.70824         0.04369
H         21.92459         8.15808         0.38366
H         22.00999        10.13331         0.70584
H         21.96631        12.35213        -0.20022
H         21.90334        14.31355         0.19736
H         21.90288        16.74431         0.17712
H         21.91996        18.64075         0.11566
H         21.96403        21.00515        -0.44761
H         21.96146        22.98058        -0.67946
H         21.94981        25.38446        -0.31796
H         21.93638        27.27329        -0.39064
H         21.89251        29.68813        -0.61549
H         21.84040        31.53533        -1.16139
H         21.80145        33.95562        -1.36168
H         21.77267        35.88920        -1.22104
H         21.69183        38.34801        -1.34818
H         19.50377        39.54561        -1.46389
