         429
 CSIRO Nanostructure Databank - Neutral Graphene Oxide Data Set
C          1.28577         3.43232        -1.28848
C          0.13710         4.05477        -0.88127
C          0.84839         6.41040        -0.83576
C          0.02560         5.41380        -0.38845
C          1.06934         7.76953        -0.35574
C         -0.04774         8.49098         0.08124
C          1.22336        10.55557         0.12474
C          0.02721         9.85878         0.33240
C          1.26237        12.00726         0.28091
C          0.12481        12.73479         0.69710
C          1.28089        14.85466         0.35977
C          0.13121        14.11866         0.71814
C          1.26632        16.30838         0.32764
C          0.07890        17.02816         0.52552
C          1.22007        19.16619         0.26370
C          0.05306        18.42128         0.48434
C          1.18895        20.62684         0.21518
C         -0.00851        21.35391         0.33656
C          1.15220        23.48500         0.09683
C         -0.02080        22.75126         0.29384
C          1.14399        25.00371         0.20079
C         -0.08532        25.64775        -0.39543
C          1.12843        27.75642        -0.80292
C         -0.09476        26.92730        -0.79253
C          1.09895        29.25282        -0.62595
C         -0.14839        29.99158        -0.34357
C          1.15841        32.05032         0.02335
C         -0.09635        31.30447        -0.03584
C          1.11965        33.48300         0.23434
C         -0.04405        34.24883         0.17048
C          1.15182        36.39445         0.18855
C         -0.03082        35.66161         0.14380
C          1.21879        37.79351        -0.12963
C          3.74613         3.32257        -0.86845
C          2.61175         4.03066        -1.20793
C          3.70156         6.22304        -0.69649
C          2.71029         5.46906        -1.28984
C          3.62593         7.68078        -0.53163
C          2.36274         8.39683        -0.42900
C          3.64183        10.51356        -0.37151
C          2.40976         9.81842        -0.22104
C          3.61406        11.98338        -0.51551
C          2.43357        12.72953        -0.04345
C          3.70790        14.87341        -0.19423
C          2.46392        14.14457         0.02117
C          3.70381        16.32960        -0.12738
C          2.47788        17.03018         0.07967
C          3.66659        19.18617        -0.12602
C          2.45134        18.46331         0.07530
C          3.65181        20.64231        -0.08538
C          2.40124        21.34977         0.05091
C          3.60985        23.50210        -0.17214
C          2.37995        22.77696        -0.01524
C          3.60195        24.91112        -0.37605
C          2.41602        25.65318        -0.31451
C          3.60698        27.76955        -0.78245
C          2.42721        27.05857        -0.58598
C          3.60225        29.24973        -0.77468
C          2.38922        29.87156        -0.09460
C          3.64692        32.07594        -0.01029
C          2.37652        31.38437        -0.09668
C          3.65808        33.46616         0.31077
C          2.38797        34.14470         0.55295
C          3.67732        36.37592         0.28995
C          2.39896        35.71701         0.54249
C          3.67647        37.77265        -0.01185
C          2.41404        38.45554        -0.18864
C          6.08877         3.34068        -0.14411
C          4.96589         4.02393        -0.53866
C          6.10384         6.19593        -0.26935
C          4.94260         5.50086        -0.45419
C          6.07985         7.64723         0.10927
C          4.82887         8.37938        -0.32503
C          6.13076        10.51187        -0.35738
C          4.87310         9.81202        -0.37347
C          6.23289        11.97647        -0.76969
C          4.90345        12.73869        -0.70726
C          6.20195        14.89199        -0.59244
C          4.88666        14.18796        -0.42185
C          6.18310        16.36792        -0.28510
C          4.91466        17.06114        -0.28395
C          6.12910        19.21875        -0.57575
C          4.87148        18.48644        -0.31056
C          6.15754        20.74044        -0.50799
C          4.83803        21.35988        -0.12395
C          6.06799        23.47980         0.07876
C          4.84762        22.79309        -0.08496
C          6.17589        24.85018        -0.40678
C          4.86059        25.56745        -0.77219
C          6.20663        27.79412        -0.85032
C          4.88460        27.05660        -0.94910
C          6.28165        29.33254        -0.80980
C          4.90763        30.01536        -0.70261
C          6.11065        32.05345         0.16214
C          4.87479        31.39077        -0.15679
C          6.10726        33.48737         0.36227
C          4.87848        34.19124         0.38347
C          6.12136        36.33333         0.23337
C          4.88160        35.64312         0.35725
C          6.12516        37.75720         0.02939
C          4.89431        38.44745        -0.12505
C          8.59879         3.35135         0.29886
C          7.29362         4.09841         0.36056
C          8.61055         6.21446         0.03413
C          7.39671         5.42843        -0.37711
C          8.57031         7.65325        -0.07598
C          7.38328         8.37290        -0.15775
C          8.56908        10.57211        -0.02315
C          7.36477         9.82378        -0.21002
C          8.54928        11.99876         0.20010
C          7.36874        12.68952        -0.06064
C          8.56650        14.90150         0.47318
C          7.29125        14.13881         0.14373
C          8.63782        16.35400         0.15221
C          7.39674        17.03515        -0.13247
C          8.65166        19.25824        -0.03151
C          7.42689        18.49264        -0.39011
C          8.57993        20.56134         0.35873
C          7.27743        21.27418         0.38642
C          8.48186        23.55810         0.91893
C          7.23454        22.76495         0.62676
C          8.52510        25.02283         0.56342
C          7.35905        25.67472        -0.10448
C          8.59055        27.78038        -0.05418
C          7.37681        27.03351        -0.32810
C          8.58921        29.15196         0.13694
C          7.24142        29.83504         0.28376
C          8.46802        32.01497         0.95853
C          7.30685        31.33887         0.27091
C          8.57271        33.48891         0.60021
C          7.35413        34.19097         0.44482
C          8.58575        36.31870         0.24739
C          7.35295        35.62163         0.31442
C          8.58057        37.75021         0.05758
C          7.35485        38.43902        -0.05418
C         11.05675         3.37591         0.38164
C          9.79852         4.04733         0.30580
C         11.03284         6.22235         0.45046
C          9.78598         5.51320         0.25032
C         11.03401         7.62371         0.40256
C          9.86973         8.34894        -0.07165
C         11.04017        10.59669         0.51022
C          9.85512         9.89397        -0.01530
C         11.05557        11.98519         0.57882
C          9.79322        12.72806         0.48523
C         11.05101        14.87703         0.73466
C          9.80077        14.11228         0.54731
C         11.08336        16.33231         0.45905
C          9.85728        17.03220         0.19551
C         11.12620        19.19427         0.36733
C          9.94854        18.49690        -0.23208
C         11.08721        20.58604         0.82653
C          9.76496        21.28213         0.90336
C         11.10304        23.52558         1.03001
C          9.77784        22.78705         1.08986
C         11.10646        25.06757         0.97527
C          9.83604        25.70638         0.40463
C         11.07246        27.78581        -0.31368
C          9.83153        27.03506         0.09165
C         11.04762        29.25482         0.08561
C          9.83202        29.86682         0.34988
C         11.09742        32.03232         0.84410
C          9.79872        31.26313         0.85384
C         11.07329        33.51101         0.68338
C          9.80996        34.18476         0.55489
C         11.05096        36.31287         0.22747
C          9.81551        35.60893         0.34617
C         11.03424        37.74419         0.00776
C          9.80671        38.43433        -0.05229
C         13.53865         3.38666         0.34520
C         12.28271         4.07505         0.45328
C         13.53024         6.24500         0.59096
C         12.25699         5.49916         0.55117
C         13.46025         7.68736         0.12572
C         12.27976         8.32396         0.87637
C         13.58308        10.56883         0.54212
C         12.26457         9.84637         0.79969
C         13.52716        12.01233         0.29931
C         12.33100        12.67297         0.56285
C         13.60703        14.85665         0.42500
C         12.36103        14.13206         0.73940
C         13.57645        16.30775         0.47975
C         12.31595        16.99060         0.53003
C         13.57856        19.19886         0.58080
C         12.30592        18.44909         0.88383
C         13.56719        20.62155         0.57460
C         12.34863        21.36478         0.74521
C         13.56436        23.47862         0.42489
C         12.35553        22.76772         0.70870
C         13.51602        24.92565         0.24114
C         12.36022        25.65496         0.35789
C         13.58196        27.81654        -0.42183
C         12.36877        27.17042         0.27197
C         13.58431        29.28618        -0.07606
C         12.31374        29.96921         0.17215
C         13.63275        31.98863         0.85624
C         12.33455        31.32048         0.46845
C         13.57995        33.51582         0.76284
C         12.27768        34.20949         0.56493
C         13.51822        36.33735         0.07121
C         12.28630        35.62271         0.30638
C         13.48178        37.76218        -0.16896
C         12.24463        38.43974        -0.16448
C         15.98228         3.37768        -0.04632
C         14.76911         4.04481         0.22911
C         16.00352         6.27371        -0.09679
C         14.82454         5.51603         0.39091
C         15.98426         7.67917        -0.15661
C         14.77742         8.43024         0.15389
C         15.92172        10.56830        -0.48064
C         14.78668         9.80035         0.16839
C         15.97139        12.02978        -0.11809
C         14.77808        12.71692         0.09212
C         16.00863        14.90730        -0.25694
C         14.76552        14.16525         0.15800
C         16.04548        16.32586         0.25640
C         14.78775        17.02560         0.43170
C         16.00851        19.18723         0.41174
C         14.78060        18.47669         0.48613
C         16.00758        20.58680         0.36533
C         14.79699        21.32632         0.42692
C         16.05470        23.44133         0.20396
C         14.80389        22.76540         0.32555
C         16.07683        24.87882        -0.10048
C         14.77128        25.62916        -0.14174
C         16.05403        27.75409        -0.15397
C         14.85817        27.10101        -0.07603
C         16.04641        29.22912        -0.50914
C         14.79093        29.95417        -0.05349
C         16.04537        32.07197         0.03051
C         14.85248        31.36923         0.20063
C         16.07748        33.51710         0.07490
C         14.84374        34.25912         0.42050
C         15.96175        36.36907        -0.28188
C         14.75901        35.67599         0.01848
C         15.92036        37.79979        -0.45087
C         14.68077        38.46641        -0.39250
C         18.41907         3.39263        -0.46153
C         17.18718         4.08696        -0.26429
C         18.41134         6.20291        -0.61764
C         17.19977         5.52415        -0.33402
C         18.39490         7.66149        -0.79531
C         17.18815         8.42411        -0.44055
C         18.47365        10.54501        -0.41099
C         17.22701         9.81942        -0.41882
C         18.47662        11.97102        -0.20569
C         17.24670        12.72538        -0.12737
C         18.51726        14.83350         0.09482
C         17.27825        14.12375        -0.01856
C         18.53180        16.26094         0.28143
C         17.25710        16.96825         0.41062
C         18.56693        19.15389         0.72258
C         17.26352        18.42787         0.64666
C         18.57792        20.56100         0.20787
C         17.27740        21.29566         0.09728
C         18.53695        23.44011         0.23102
C         17.30544        22.76725         0.18854
C         18.55635        24.92343         0.53376
C         17.31427        25.64217         0.07216
C         18.55945        27.74769         0.03388
C         17.31226        27.02693        -0.03118
C         18.52890        29.21107         0.14789
C         17.29846        29.95538        -0.10231
C         18.54522        32.06755        -0.26120
C         17.30375        31.34003        -0.10699
C         18.44947        33.49284        -0.62966
C         17.21080        34.22922        -0.29277
C         18.40744        36.40544        -0.61492
C         17.20358        35.67205        -0.39420
C         18.35889        37.84299        -0.68641
C         17.12678        38.51089        -0.63468
C         19.60217         4.07350        -0.65346
C         20.87799         6.22023        -0.74196
C         19.62742         5.49606        -0.72168
C         20.94208         7.57804        -0.69586
C         19.73503         8.40980        -0.84639
C         20.91675        10.55253        -0.31480
C         19.70906         9.84842        -0.49689
C         20.92218        11.92103        -0.12777
C         19.71413        12.66285        -0.09254
C         20.95613        14.81197         0.19737
C         19.73561        14.10087         0.07148
C         20.96346        16.18217         0.35833
C         19.76459        16.93100         0.39797
C         21.00577        19.16044         0.10436
C         19.89653        18.39891         0.79126
C         21.01882        20.52098         0.02292
C         19.84016        21.32056         0.21530
C         21.00583        23.49637         0.11741
C         19.79477        22.73459         0.18165
C         21.00611        24.88010         0.03240
C         19.82042        25.63568         0.10998
C         21.00350        27.82088        -0.26734
C         19.79401        27.06214         0.00002
C         21.03576        29.17628        -0.32230
C         19.86716        29.99033         0.03824
C         20.99338        32.19415        -0.44756
C         19.78051        31.42753        -0.29726
C         20.99023        33.54566        -0.59737
C         19.74073        34.27924        -0.83143
C         20.83807        36.52599        -0.84363
C         19.68404        35.76247        -0.73177
C         20.78401        37.94016        -0.87313
C         19.57250        38.58671        -0.81757
O          1.18790        28.67788        -1.95711
O          5.64560        24.90748        -1.78845
O         19.27817        29.67520         1.33328
O         10.15317         9.16773        -1.26803
O          6.87700        21.78805         1.68188
O         17.82348        18.92547         1.96146
O         11.73490        14.55728         2.00637
O          2.35588        34.94217         1.77421
O          4.05753        12.41519        -1.87672
O          7.55050        14.58573         1.50164
O         14.39351        34.10534         1.83773
O         15.37345        25.14109        -1.39749
O         10.50047        23.10813         2.30404
O         18.96448        33.77968        -1.97697
O          4.11952        29.92228        -1.94935
O          8.26309        24.56522         1.95510
O         14.38945         5.98490         1.73388
O         10.54710        31.47297         2.10429
O          6.88218        18.75143        -1.75804
O          5.67616        27.39846        -2.14792
O          1.65640         6.10953        -1.95145
O         10.30075        20.63808         2.10469
O         17.92308        20.72161        -1.11041
O         18.98249         8.10710        -2.06830
O         13.06476        10.34809         1.91757
O          8.08041        31.95341         2.37924
H          8.92958        31.98743         2.88646
O          6.67506        29.45101         1.56936
H          7.06525        30.05292         2.24635
O         20.30402        18.37562         2.19189
H         19.47016        18.36529         2.72033
O         12.49034        27.64694         1.63558
H         11.92656        27.07639         2.21563
O         18.53277        25.01050         2.01908
H         18.66684        25.95293         2.25937
O          5.98232         7.63078         1.59507
H          6.42340         6.80861         1.90778
O         10.14497        18.47184        -1.69691
H          9.31297        18.14079        -2.10106
O         13.56074        27.71555        -1.89015
H         13.81539        26.79648        -2.13232
O         16.02045        29.26371        -1.97755
H         15.19378        28.79820        -2.25460
O          6.86435        29.75076        -2.05624
H          6.31500        29.35102        -2.76829
O         11.00408        27.69397        -1.75784
H         11.84335        28.04789        -2.13974
O         13.78415        31.65662         2.27201
H         14.25551        32.41854         2.68577
O          7.04849         4.42881         1.77192
H          6.99708         3.58781         2.27295
O         13.08610         7.66950        -1.28009
H         13.84810         7.34601        -1.80458
O          7.58868         5.10762        -1.78733
H          7.70846         5.94872        -2.27598
O         12.19873        18.45710         2.36179
H         12.90562        17.87511         2.71396
O          6.61152        11.92137        -2.18188
H          5.76845        11.87022        -2.68984
O          6.56346        14.79028        -2.00649
H          5.80389        15.10618        -2.53953
O         12.37954         7.95968         2.27014
H         12.91307         8.65929         2.71609
O         15.91617        15.04137        -1.72699
H         15.90136        14.13351        -2.10043
O          2.50729        29.46374         1.30412
H          1.85193        29.96934         1.82967
O         15.54770        10.58707        -1.92017
H         15.75084         9.70052        -2.28907
O          1.09495        25.30643         1.63873
H          1.84841        24.84685         2.06616
O         11.11235        25.51294         2.36669
H         10.52350        24.88407         2.85671
O          6.45988        21.25311        -1.83310
H          6.72469        20.48160        -2.38919
H          1.23697         2.35563        -1.51482
H         -0.77035         3.43403        -0.80150
H         -0.72267         5.62087         0.39042
H         -1.01469         7.97521         0.16625
H         -0.88639        10.38262         0.63887
H         -0.79691        12.21548         0.98804
H         -0.78523        14.63779         1.02673
H         -0.86647        16.50069         0.70638
H         -0.90933        18.92682         0.63672
H         -0.96400        20.83274         0.48092
H         -0.97933        23.26979         0.43300
H         -1.01531        25.06310        -0.44377
H         -1.01140        27.37482        -1.20416
H         -1.11408        29.47664        -0.44622
H         -1.03386        31.84302         0.15628
H         -1.01206        33.75669         0.00461
H         -0.97757        36.18869        -0.04482
H          0.27889        38.33137        -0.32264
H          3.71358         2.22878        -0.75635
H          2.43594        39.53102        -0.41675
H          6.07886         2.24028        -0.09961
H          4.90542        39.52744        -0.33311
H          8.60047         2.25374         0.39334
H          7.36151        39.52663        -0.21815
H         11.06849         2.27563         0.36023
H          9.80798        39.52215        -0.21464
H         13.51776         2.29081         0.24415
H         12.22365        39.52633        -0.33384
H         15.99371         2.27869        -0.09758
H         14.64694        39.55722        -0.52946
H         18.41728         2.29369        -0.42205
H         17.09895        39.60702        -0.72217
H         20.54643         3.51911        -0.75573
H         21.80677         5.63292        -0.68368
H         21.91908         8.06468        -0.56630
H         21.87568        10.01960        -0.36216
H         21.88961        12.42786        -0.02513
H         21.91671        14.28183         0.18583
H         21.92387        16.69726         0.49344
H         21.92451        18.61232        -0.15041
H         21.94429        21.01627        -0.30759
H         21.96825        22.96883         0.08275
H         21.97154        25.38706        -0.10487
H         21.92105        27.26899        -0.51315
H         21.95251        29.67981        -0.66148
H         21.95477        31.67923        -0.30934
H         21.93804        34.09759        -0.52999
H         21.81703        36.03748        -0.94162
H         21.71719        38.51213        -0.96863
H         19.51915        39.68367        -0.86716
