         420
 CSIRO Nanostructure Databank - Neutral Graphene Oxide Data Set
C         27.93505        27.42374        -0.15870
C         27.95491        28.83958         0.13134
C         26.84170        29.48289         0.65168
C         27.97837        31.64780         0.55344
C         26.87165        30.87475         0.87985
C         27.84139        33.12835         0.59338
C         26.94644        33.82681         1.53115
C         27.97662        36.00977         1.02674
C         26.95822        35.18277         1.64229
C         27.98032        37.44738         1.14307
C         26.84688        38.18582         1.59666
C         27.99209        40.32649         1.24875
C         26.84325        39.56363         1.61899
C         28.00524        41.76976         1.23628
C         26.83535        42.54488         1.49140
C         28.06144        44.62345         1.11669
C         26.86310        43.92061         1.43367
C         28.07354        46.04803         0.99096
C         30.28309        27.49790        -0.87893
C         29.01286        26.78451        -0.67601
C         30.32600        28.90405        -0.46171
C         29.17585        29.58394        -0.09169
C         30.28899        31.79906        -0.42611
C         29.18646        31.04073         0.04570
C         30.18103        33.23063        -0.50222
C         28.97758        33.93857         0.02618
C         30.19187        36.11396        -0.02018
C         29.05263        35.37261         0.37602
C         30.27723        37.50339         0.23505
C         29.13626        38.18679         0.75851
C         30.37971        40.32560         0.60542
C         29.15997        39.61467         0.86199
C         30.41348        41.72295         0.71746
C         29.22414        42.45839         0.96078
C         30.46048        44.60122         0.54402
C         29.25774        43.89836         0.89736
C         30.44697        46.02599         0.39211
C         29.21456        46.71941         0.63392
C         32.78260        24.57431        -0.68616
C         31.62864        25.25840        -0.87280
C         32.87459        27.42906        -0.62104
C         31.61813        26.72421        -0.97138
C         32.88237        28.84646        -0.49024
C         31.61429        29.65357        -0.25821
C         32.91524        31.71575        -0.84638
C         31.54162        31.02573        -0.96184
C         33.09124        32.90996        -1.45215
C         31.10539        34.07487        -1.12110
C         32.36659        36.22255        -1.10471
C         31.21764        35.47846        -0.80917
C         32.63836        37.51509        -0.55912
C         31.49253        38.21740        -0.03629
C         32.80994        40.27709         0.01925
C         31.56817        39.59778         0.22147
C         32.87789        41.68233         0.17277
C         31.73323        42.44244         0.78049
C         32.84974        44.54043        -0.03448
C         31.67989        43.88821         0.35736
C         32.85052        45.97370        -0.24820
C         31.64008        46.71018         0.01989
C         32.80906        48.79961        -0.51203
C         31.71121        48.14990        -0.05376
C         35.30020        23.08002        -0.70506
C         35.26770        24.52063        -0.54941
C         34.06356        25.23730        -0.55928
C         35.30894        27.36109        -0.22986
C         34.06981        26.68468        -0.47392
C         35.31675        28.78579        -0.17924
C         34.09454        29.51325        -0.30445
C         35.45551        31.57704        -0.51779
C         34.09091        31.02109        -0.15338
C         35.58497        32.90776        -1.13806
C         34.38334        33.63459        -1.61646
C         35.33931        35.87073        -0.90557
C         34.38835        35.12565        -1.54008
C         35.19253        37.28950        -0.42572
C         33.93091        38.11652        -0.52012
C         35.24491        40.22613        -0.15576
C         34.00477        39.51710        -0.23712
C         35.29547        41.63178        -0.16496
C         34.07995        42.37152        -0.05264
C         35.28663        44.46314        -0.46944
C         34.09425        43.80895        -0.17275
C         35.27665        45.87491        -0.98453
C         34.01586        46.62664        -0.65741
C         35.31270        48.78092        -0.89447
C         33.98616        48.06616        -1.09364
C         35.35676        50.16983        -1.02424
C         37.74764        23.11126        -0.91313
C         36.45829        22.39983        -0.87660
C         37.73259        24.50183        -0.41295
C         36.53645        25.19974        -0.34307
C         37.75424        27.32307         0.13390
C         36.53404        26.63410        -0.09827
C         37.74961        28.74524         0.22143
C         36.56188        29.46366         0.04071
C         37.88717        31.59429        -0.08147
C         36.60076        30.90449        -0.15553
C         37.93643        32.99282        -0.24744
C         36.78854        33.71899        -0.82169
C         37.77063        35.91073         0.04343
C         36.65034        35.20454        -0.65245
C         37.80954        37.36661        -0.10517
C         36.47694        38.00655        -0.03249
C         37.79805        40.23032         0.09428
C         36.48423        39.48989         0.11136
C         37.78313        41.67161        -0.19496
C         36.54966        42.35071        -0.24106
C         37.76410        44.48838        -0.45971
C         36.53666        43.76794        -0.41950
C         37.75242        45.93844        -0.49390
C         36.54439        46.63711        -0.64424
C         37.75883        48.78655        -0.52491
C         36.52700        48.06506        -0.67860
C         37.76051        50.21298        -0.61392
C         36.55093        50.87650        -0.88623
C         40.32661        20.26112        -1.07108
C         39.13595        20.89946        -1.07687
C         40.31449        23.09570        -0.64353
C         39.06654        22.37760        -1.03473
C         40.27857        24.40830        -0.25396
C         38.99256        25.09963         0.15577
C         40.23227        27.29440         0.15826
C         39.02400        26.61777         0.10365
C         40.28820        28.71595         0.41974
C         38.99737        29.46064         0.68668
C         40.29405        31.59734         0.31465
C         39.07037        30.90982         0.27219
C         40.32565        33.01059         0.17452
C         39.11641        33.70384        -0.01403
C         40.31595        35.93231         0.06378
C         39.07192        35.16764         0.17930
C         40.28821        37.32995        -0.02906
C         39.02286        38.05216        -0.05134
C         40.25972        40.19861        -0.15296
C         39.05979        39.49062        -0.08284
C         40.25883        41.64729        -0.18905
C         39.01430        42.36527        -0.27428
C         40.23586        44.51102        -0.27778
C         39.00045        43.79314        -0.36059
C         40.22877        45.94131        -0.24430
C         38.99223        46.65186        -0.34884
C         40.21653        48.79658        -0.16420
C         38.98757        48.07638        -0.33815
C         40.17931        50.22669        -0.14521
C         38.99910        50.94001        -0.41658
C         40.19630        53.09047        -0.29996
C         39.03554        52.37667        -0.46133
C         42.81760        20.32432        -1.16286
C         41.58395        20.98858        -0.99270
C         42.81759        23.09699        -0.66712
C         41.57263        22.37768        -0.75212
C         42.80509        24.46795        -0.40550
C         41.55409        25.13353         0.09741
C         42.76649        27.27774         0.05454
C         41.48709        26.59903        -0.36072
C         42.70955        28.55042         0.64938
C         41.49354        29.36040         0.63802
C         42.75217        31.72829         0.81253
C         41.60514        30.85340         0.31268
C         42.77587        33.10730         0.40058
C         41.55596        33.78066         0.18267
C         42.77175        35.91487        -0.05126
C         41.54588        35.20228         0.04420
C         42.76889        37.35823        -0.13621
C         41.52211        38.06294        -0.10323
C         42.73885        40.20245        -0.11668
C         41.51424        39.48225        -0.15276
C         42.72931        41.63486        -0.07022
C         41.47606        42.35462        -0.13837
C         42.67299        44.52010         0.01131
C         41.46268        43.79724        -0.15317
C         42.69602        45.93396        -0.02131
C         41.46117        46.65561        -0.13122
C         42.71826        48.77308        -0.08676
C         41.45776        48.08452        -0.08499
C         42.74854        50.23026         0.16172
C         41.39534        50.98161         0.18882
C         42.64799        53.10444         0.06428
C         41.43226        52.43315        -0.01605
C         44.02754        21.01929        -1.10529
C         45.32569        23.12725        -0.66506
C         44.07036        22.40011        -0.85606
C         45.32234        24.52491        -0.49257
C         44.03499        25.28025        -0.72891
C         45.22427        27.31252         0.18986
C         44.00988        26.63568        -0.08153
C         45.17782        28.60851         0.76151
C         43.92043        29.04942         1.16288
C         45.22744        31.76922         1.12909
C         43.92622        31.23019         1.34442
C         45.25134        33.15472         0.69945
C         44.00753        33.82666         0.36122
C         45.25778        35.87904        -0.28639
C         43.99249        35.19585         0.02132
C         45.27641        37.38822        -0.53447
C         43.98067        38.08109        -0.17799
C         45.22433        40.21856         0.01282
C         43.98200        39.49425        -0.10048
C         45.19802        41.63724         0.12692
C         43.94771        42.32469         0.09513
C         45.22630        44.55257         0.35230
C         43.90110        43.77758         0.32500
C         45.19954        45.97959         0.01272
C         43.95416        46.64877        -0.04960
C         45.18343        48.79084        -0.47542
C         43.92180        48.07294        -0.19218
C         45.19993        50.32614        -0.44672
C         43.95278        51.03081        -0.06295
C         43.88241        52.40991         0.03812
C         47.75001        23.12792        -0.36613
C         46.57252        22.44584        -0.58841
C         47.76845        24.53557        -0.17099
C         46.52953        25.23695        -0.23295
C         47.69381        27.32217         0.41757
C         46.51509        26.64886         0.05902
C         47.65228        28.73084         0.90536
C         46.39223        29.51799         0.60266
C         47.66729        31.65066         1.06759
C         46.40798        30.97167         1.11194
C         47.65579        33.16022         1.28291
C         46.45313        33.81782         0.66651
C         47.75505        35.93427         0.28487
C         46.52543        35.15313         0.08154
C         47.69182        37.34505         0.25076
C         46.50230        38.07970         0.03857
C         47.66790        40.26206         0.32527
C         46.46650        39.50321         0.12664
C         47.66667        41.64831         0.30897
C         46.43919        42.37805         0.22741
C         47.70180        44.51740         0.09173
C         46.47147        43.79035         0.21134
C         47.68779        45.94959        -0.07496
C         46.45205        46.66117        -0.14886
C         47.67554        48.79040        -0.38858
C         46.46553        48.07814        -0.33806
C         47.65661        50.23405        -0.30292
C         46.50833        50.95513        -0.23361
C         50.25091        24.60016         0.03778
C         48.99051        25.26195         0.08187
C         50.19618        27.38556         0.56312
C         48.95973        26.65468         0.37433
C         50.20938        28.79616         0.79024
C         48.93794        29.49869         1.05597
C         50.15659        31.69642         1.03350
C         48.90567        30.98368         1.01580
C         50.15158        33.11671         1.01727
C         48.93897        33.84179         0.87463
C         50.26362        35.85858         0.21796
C         48.94513        35.20969         0.54567
C         50.21786        37.36294         0.27446
C         48.95393        38.05481         0.53844
C         50.19625        40.22942         0.13348
C         48.95224        39.55804         0.55200
C         50.16699        41.64783        -0.01233
C         48.96454        42.38302         0.55180
C         50.16631        44.51078         0.00219
C         48.92994        43.82926         0.13319
C         50.17886        45.95273        -0.12326
C         48.92963        46.65440        -0.18757
C         50.16606        48.73700        -0.52994
C         48.92790        48.07274        -0.36235
C         51.42505        25.28711         0.21609
C         52.67714        27.41160         0.55340
C         51.43883        26.69259         0.45261
C         52.66219        28.82888         0.68138
C         51.41456        29.52840         0.80241
C         52.64810        31.66027         0.93098
C         51.41998        30.97421         0.95573
C         52.70609        33.11759         1.16542
C         51.40935        33.86606         1.22789
C         52.70236        36.00493         0.63765
C         51.39837        35.38368         1.11827
C         52.67686        37.34094         0.19193
C         51.39754        38.06043         0.12672
C         52.53112        40.13564        -0.69848
C         51.36023        39.49118        -0.08346
C         52.49979        41.64591        -0.98464
C         51.32901        42.35144        -0.32401
C         52.67080        44.41741        -0.06371
C         51.36416        43.75949        -0.15582
C         52.69857        45.95325        -0.07337
C         51.40213        46.65924        -0.23954
C         51.36696        48.04849        -0.47529
C         55.12227        27.42015         0.55807
C         53.93695        26.73457         0.50322
C         55.13413        28.84359         0.65205
C         53.89768        29.54836         0.71021
C         55.13803        31.68314         0.80717
C         53.90085        30.97352         0.80290
C         55.15752        33.14797         0.78611
C         53.95592        33.86570         0.88893
C         55.16166        35.99335         0.49425
C         53.93444        35.28732         0.70126
C         55.13735        37.41599         0.21723
C         53.88925        38.03729        -0.04467
C         55.10287        40.17870        -0.67784
C         53.86682        39.39352        -0.62563
C         55.06513        41.58602        -1.28724
C         53.83958        42.32749        -0.78693
C         55.13142        44.39534        -0.47968
C         53.89428        43.66950        -0.44378
C         55.13093        45.82117        -0.49033
C         53.98218        46.56915        -0.43238
C         56.34871        29.56490         0.70092
C         56.34450        30.94768         0.77075
C         56.36674        33.87733         0.61138
C         56.36934        35.25399         0.49896
C         56.30526        38.21742         0.16141
C         56.26100        39.57575        -0.20261
C         56.33816        42.34954        -1.03978
C         56.34740        43.66623        -0.70992
O         27.77081        33.66161        -0.78351
O         42.05661        50.54895         1.41703
O         38.44304        22.96708        -2.23600
O         30.94898        27.23557        -2.17191
O         44.50475        44.21034         1.59118
O         37.11935        39.90749         1.37228
O         43.85030        30.06953         2.10507
O         45.09076        49.59388        -1.71374
O         48.99341        38.81508         1.80938
O         52.08328        33.46910         2.47870
O         33.23689        35.70435        -2.06203
O         35.25621        32.95073        -2.58340
O         52.79022        45.18495         1.18078
O         31.99945        33.55045        -2.06523
O         46.03578        35.17923        -1.33156
O         38.20421        35.45591         1.36081
O         48.20749        28.92892         2.23005
O         35.63269        37.34707         0.98808
O         53.02404        39.41846        -1.87251
O         37.18108        34.61881        -1.90840
O         38.90060        24.82921         1.61532
H         39.78113        25.08980         1.98749
O         35.29447        45.74324        -2.46032
H         34.97655        46.60910        -2.82211
O         38.87923        29.49410         2.15640
H         38.86887        28.56491         2.47071
O         51.15014        35.91012         2.43851
H         51.62785        35.32595         3.07086
O         50.61542        35.44075        -1.13271
H         49.87949        35.68447        -1.73238
O         33.95006        31.34399         1.27085
H         34.60136        30.80448         1.76697
O         52.22299        41.77404        -2.42825
H         52.09612        40.86558        -2.78722
O         41.95024        30.75711        -1.13798
H         41.86764        31.65903        -1.51863
O         31.64524        29.97493         1.16892
H         31.72013        29.13784         1.67188
O         54.96670        41.42988        -2.74013
H         54.01945        41.55634        -2.98684
O         47.53216        33.35731         2.73470
H         48.26798        32.87027         3.16338
O         49.15152        42.39173         2.00939
H         49.94671        42.93186         2.20468
O         41.38141        26.57307        -1.80202
H         41.59257        27.46663        -2.14340
O         41.64480        25.18875         1.57420
H         41.95930        24.31198         1.88297
O         33.78065        48.04969        -2.57326
H         32.88165        47.68831        -2.73173
O         31.30233        30.79437        -2.35908
H         31.31889        31.66558        -2.81355
O         43.98505        25.52904        -2.18463
H         43.78971        24.67393        -2.62370
O         46.45969        29.71700        -0.85374
H         45.61454        30.11536        -1.15236
O         32.05077        42.49815         2.22849
H         32.17783        41.57513         2.53623
O         45.38768        37.57613        -1.98353
H         45.83511        36.76709        -2.32960
H         26.99435        26.87647         0.00306
H         25.92463        28.91475         0.86216
H         25.96415        31.36438         1.26006
H         26.24573        33.23875         2.14180
H         26.23331        35.66365         2.31499
H         25.93621        37.64835         1.89579
H         25.93026        40.08113         1.94437
H         25.88645        42.04101         1.72058
H         25.94389        44.49615         1.61631
H         27.14075        46.60297         1.16841
H         28.94164        25.72705        -0.96502
H         29.17545        47.81202         0.52906
H         32.73933        23.47748        -0.65604
H         30.68948        24.70927        -1.02523
H         32.80104        49.89823        -0.54431
H         30.85700        48.74563         0.29802
H         34.35634        22.51873        -0.72170
H         34.44108        50.73149        -1.25279
H         36.43640        21.31561        -1.05472
H         36.52421        51.96784        -0.99773
H         40.36861        19.16485        -1.15463
H         38.20509        20.32642        -1.19217
H         40.18589        54.18663        -0.38742
H         38.10976        52.93065        -0.66366
H         42.82198        19.24203        -1.35566
H         42.66095        54.20171        -0.00510
H         44.95954        20.45680        -1.25299
H         44.79983        53.00829        -0.05515
H         48.68320        22.55140        -0.31921
H         46.60948        21.35452        -0.70703
H         48.60927        50.76304        -0.16413
H         46.55628        52.02785         0.00048
H         50.30007        23.52314        -0.16787
H         50.19275        49.81969        -0.70839
H         52.36849        24.73122         0.14618
H         52.30394        48.60964        -0.59131
H         56.07905        26.87956         0.52457
H         53.96834        25.64009         0.42850
H         56.09012        46.32844        -0.67407
H         54.03405        47.65032        -0.62091
H         57.30162        29.01747         0.67416
H         57.30875        31.47153         0.80120
H         57.32619        33.34794         0.54779
H         57.32736        35.77157         0.35286
H         57.28239        37.77875         0.40445
H         57.20430        40.13971        -0.19118
H         57.28537        41.85688        -1.30209
H         57.30102        44.21321        -0.65351
