         661
 CSIRO Nanostructure Databank - Neutral Graphene Oxide Data Set
C          6.01320        31.88477        -0.96301
C          6.12361        33.21891        -1.11812
C          8.30868        27.46280        -0.49039
C          8.20167        28.85837         0.04501
C          7.09378        29.68028        -0.56163
C          8.33256        31.72818        -0.06727
C          7.14046        31.05266        -0.52519
C          8.25204        33.21371         0.16720
C          7.45689        33.91015        -0.93816
C          8.44316        36.03940        -0.04277
C          7.39164        35.39529        -0.67004
C          8.50716        37.46792         0.04243
C         10.78962        23.12563        -0.63609
C         10.77232        24.58883        -0.74263
C          9.53345        25.35856        -0.72700
C         10.75058        27.44133        -0.09680
C          9.51081        26.74709        -0.46570
C         10.72341        28.88041         0.09988
C          9.52287        29.58758         0.04877
C         10.75635        31.72844         0.38831
C          9.51456        31.01862         0.16074
C         10.76824        33.13350         0.61281
C          9.57660        33.89622         0.41520
C         10.69585        35.99021         1.13354
C          9.58215        35.28189         0.46270
C         10.82482        37.45491         0.96465
C          9.65682        38.15256         0.44700
C         10.88181        40.27351         0.53540
C          9.69389        39.57091         0.34696
C         10.94055        41.68031         0.30817
C         13.28655        18.91230        -0.42073
C         13.15355        20.19915        -0.05376
C         11.83936        20.92181        -0.27933
C         13.05834        23.11448         0.32358
C         11.90469        22.43419        -0.24730
C         13.10892        24.49323         0.34249
C         12.04742        25.30946        -0.26764
C         13.15746        27.43227         0.41862
C         11.93531        26.74557         0.07495
C         13.19462        28.85575         0.39410
C         11.96452        29.59899         0.26054
C         13.26516        31.76795         0.24581
C         11.97183        30.99863         0.37125
C         13.21398        33.13937         0.87338
C         12.00123        33.79693         0.97503
C         13.20492        35.91212         1.89476
C         11.93571        35.18313         1.49776
C         13.20513        37.46169         1.83276
C         12.01142        38.13499         1.21286
C         13.30771        40.23556         0.82936
C         12.09419        39.55054         0.87090
C         13.35918        41.66135         0.70176
C         12.13182        42.39174         0.41450
C         13.33237        44.54515         0.38421
C         12.17315        43.80530         0.18086
C         13.40180        45.95777         0.23781
C         15.74695        14.63222        -0.93440
C         15.70936        16.05303        -0.40197
C         14.53457        16.73122        -0.47803
C         15.58887        18.76418         0.57281
C         14.31029        18.02375         0.25005
C         15.51876        20.12556         0.86244
C         14.13150        20.77472         0.94761
C         15.46714        23.03116         1.17681
C         14.15716        22.31506         0.96199
C         15.51359        24.49436         1.00003
C         14.20041        25.23563         1.09299
C         15.56190        27.34387         0.81442
C         14.31974        26.68610         0.69547
C         15.61119        28.77200         0.79920
C         14.41817        29.53263         0.62701
C         15.62816        31.62673         1.03843
C         14.46723        30.96954         0.67404
C         15.67341        33.05695         1.22978
C         14.44215        33.78448         1.27328
C         15.68853        35.57258         2.29497
C         14.44756        35.08340         1.83025
C         15.72901        37.74802         2.35161
C         14.41022        38.42965         2.08816
C         15.84910        40.22129         1.06785
C         14.56960        39.41973         0.92759
C         15.83420        41.68442         1.00265
C         14.55732        42.35736         0.89550
C         15.77553        44.59571         1.16667
C         14.50793        43.83203         0.94127
C         15.84234        45.98234         0.64907
C         14.59329        46.69234         0.37996
C         15.86230        48.78062        -0.01442
C         14.65008        48.07849         0.05925
C         15.94398        50.15466        -0.33476
C         18.75029        11.03277        -2.55536
C         18.58750        12.16421        -1.74189
C         17.32151        12.87161        -1.70792
C         18.14723        14.44462         0.00545
C         17.10930        13.97628        -0.94129
C         18.02833        15.82761         0.58245
C         16.85210        16.65328         0.26195
C         18.04364        18.67135         1.03509
C         16.81662        17.99993         0.65933
C         17.95807        20.09704         1.53836
C         16.71387        20.86739         1.14637
C         17.96450        23.00334         1.17041
C         16.73565        22.26666         1.19101
C         17.97033        24.41461         1.01084
C         16.72350        25.15737         0.97480
C         18.01516        27.28473         0.92134
C         16.78007        26.60618         0.92919
C         18.06428        28.71425         1.01274
C         16.84771        29.42335         1.03116
C         18.17947        31.57359         1.43202
C         16.83038        30.84775         1.34915
C         18.17699        33.03316         1.27917
C         16.91214        33.72602         1.40321
C         18.19633        35.85030         1.88069
C         16.92158        35.07422         1.84851
C         18.20745        37.37177         1.93363
C         16.94007        38.16285         1.87325
C         18.25910        40.29121         1.77399
C         16.98779        39.55133         1.42805
C         18.32521        41.60137         0.94634
C         17.03025        42.38024         1.08286
C         18.31885        44.52386         1.07371
C         17.06259        43.84388         1.52709
C         18.24399        45.67026         0.10717
C         17.04898        46.56548         0.38092
C         18.43117        48.70005        -0.02275
C         17.11760        48.03370         0.24610
C         18.42939        50.10392        -0.50019
C         17.16486        50.83506        -0.55808
C         18.41250        52.89833        -1.14122
C         17.20699        52.21588        -0.85411
C         18.47347        54.27113        -1.37476
C         21.76495         8.73063        -5.49647
C         21.44672         8.91854        -4.13586
C         20.17441         9.42253        -3.70166
C         21.06236        10.80175        -1.77351
C         19.98616        10.33281        -2.63328
C         20.96015        12.05637        -1.10310
C         19.69971        12.68957        -1.03039
C         20.74628        14.52527         0.35329
C         19.52397        13.81394        -0.09930
C         20.65026        15.86487         0.88832
C         19.31870        16.53970         1.01145
C         20.57951        18.73165         1.04982
C         19.25245        18.01133         1.05607
C         20.47686        20.20080         1.39689
C         19.24139        20.86731         1.34313
C         20.44345        22.97071         1.13515
C         19.21945        22.27727         1.26029
C         20.41310        24.34766         0.63644
C         19.18251        25.13328         0.81605
C         20.46120        27.26658         0.55297
C         19.23737        26.54188         0.78059
C         20.51915        28.66479         0.66702
C         19.32618        29.41318         0.97433
C         20.59825        31.55474         0.90213
C         19.38591        30.81738         1.09586
C         20.60812        32.98708         1.00526
C         19.37707        33.71333         1.16832
C         20.67552        35.90746         1.20994
C         19.33190        35.22347         1.05813
C         20.70127        37.31733         1.34126
C         19.47201        38.08916         1.54704
C         20.81086        40.18632         1.83829
C         19.50267        39.46185         1.57727
C         20.71830        41.70575         1.65861
C         19.57261        42.35452         1.34315
C         20.86766        44.45373         0.97688
C         19.58376        43.88494         1.54129
C         20.88252        45.71585         0.22228
C         19.57499        46.41029        -0.10147
C         20.87588        48.50962        -0.38293
C         19.64546        47.87670        -0.22001
C         20.87674        49.93541        -0.78464
C         19.61357        50.70208        -0.81188
C         20.91374        52.86234        -0.86990
C         19.68442        52.10821        -1.35906
C         20.93447        54.28203        -1.10337
C         19.72891        54.95122        -1.53511
C         21.07814        56.89639        -2.21782
C         19.82229        56.26069        -2.02722
C         21.17760        58.18388        -2.80032
C         24.77831         8.29631        -7.66920
C         23.45392         8.39235        -7.27923
C         24.17485         8.62221        -4.94323
C         23.11174         8.55524        -5.90462
C         23.85678         8.73901        -3.55740
C         22.51344         8.75224        -3.20318
C         23.45486        10.65671        -1.13921
C         22.24124        10.06231        -1.56406
C         23.36075        11.94254        -0.55475
C         22.11171        12.60703        -0.43101
C         23.19147        14.47316         0.93444
C         21.97752        13.88344         0.23910
C         23.09966        15.96767         1.19674
C         21.79510        16.55892         1.27409
C         22.92750        18.73680         2.01859
C         21.61882        17.93985         1.87096
C         22.91737        20.23011         1.89920
C         21.67563        20.93352         1.51644
C         22.93685        23.07211         1.13504
C         21.68556        22.33166         1.30868
C         22.96822        24.36980         0.71852
C         21.69957        25.03558         0.35216
C         22.97406        27.22530         0.02054
C         21.66720        26.51192         0.14788
C         22.93829        28.68526         0.20083
C         21.76790        29.38798         0.46345
C         23.00162        31.57389         0.46135
C         21.79493        30.84241         0.59198
C         23.03092        32.97382         0.67483
C         21.83718        33.70695         0.88881
C         23.09518        35.86806         0.73710
C         21.86125        35.16367         0.96920
C         23.11943        37.29570         0.78266
C         21.93879        38.02393         1.14085
C         23.18767        40.09666         0.89341
C         21.98472        39.45059         1.20032
C         23.31454        41.55440         0.62860
C         21.79503        42.61487         2.22071
C         23.33384        44.42908         1.02706
C         22.02354        43.87398         1.40998
C         23.32536        45.79465         0.53329
C         22.14119        46.48669         0.25282
C         23.35900        48.62960        -0.06715
C         22.13144        47.85595        -0.14815
C         23.37355        50.02991        -0.21251
C         22.15842        50.72260        -0.65860
C         23.27383        52.90027        -0.08643
C         22.06573        52.18773        -0.51641
C         23.34518        54.39879        -0.46291
C         22.15921        54.98086        -1.09746
C         23.56212        56.80660        -1.94838
C         22.27455        56.23282        -1.75578
C         23.70072        58.00543        -2.85912
C         22.42271        58.80094        -3.04055
C         23.83805        60.65608        -3.82480
C         22.54665        60.07366        -3.59400
C         25.81966         8.35949        -6.72288
C         26.58446         8.57967        -4.36221
C         25.53548         8.52305        -5.36269
C         26.30659         8.74188        -3.04067
C         24.92733         8.91961        -2.55750
C         26.01308        10.68565        -1.02180
C         24.75189         9.95772        -1.35529
C         25.87227        12.11757        -0.62994
C         24.59856        12.52740         0.09180
C         25.73032        14.70107         0.71214
C         24.46528        14.06456         0.17463
C         25.59051        16.09268         1.21006
C         24.26037        16.66843         1.51481
C         25.39926        18.79284         2.16759
C         24.25116        18.06339         1.90820
C         25.49875        20.27269         1.85228
C         24.18195        21.08506         2.00178
C         25.45978        23.13633         1.37787
C         24.22812        22.28934         1.06275
C         25.50474        24.42660         0.92199
C         24.27258        24.98828         0.23094
C         25.45043        27.18403         0.14094
C         24.25885        26.50276         0.21247
C         25.43480        28.59748        -0.32225
C         24.15507        29.37646        -0.22540
C         25.52244        31.50351        -0.04690
C         24.19631        30.87280        -0.06427
C         25.56043        32.95803         0.20472
C         24.31862        33.69665         0.58190
C         25.49525        35.85825         0.13307
C         24.30367        35.17097         0.44538
C         25.53320        37.26636         0.16213
C         24.35038        37.97998         0.52258
C         25.64194        40.12425         0.49234
C         24.38521        39.39628         0.61450
C         25.72881        41.47520         0.76877
C         24.51277        42.20309         1.32413
C         25.80338        44.22033         0.50812
C         24.51672        43.70318         1.11330
C         25.86732        45.74000         0.36584
C         24.59113        46.49907         0.26879
C         25.80713        48.68202         0.21471
C         24.59011        47.97552         0.23111
C         25.82298        50.08784         0.12008
C         24.57667        50.78565        -0.02102
C         25.76135        52.99515         0.44536
C         24.54562        52.18695         0.05128
C         25.84065        54.27420        -0.38530
C         24.68399        54.95198        -0.75498
C         26.04064        56.76954        -1.79866
C         24.73409        56.17928        -1.50461
C         26.11859        58.05809        -2.31585
C         24.87329        58.89414        -2.42187
C         24.97652        60.09625        -3.32902
C         27.36852         8.81759        -1.97636
C         28.53493        10.94180        -1.09868
C         27.24432        10.17519        -1.29681
C         28.41499        12.25360        -0.35951
C         27.09902        12.92706        -0.34268
C         28.24007        14.96752         0.68807
C         26.95883        14.18305         0.44086
C         28.05805        15.93677         1.89331
C         26.81804        16.78177         1.70590
C         27.98270        18.89071         2.57397
C         26.70341        18.11246         2.37528
C         27.99854        20.37091         2.45593
C         26.68108        21.06225         2.42898
C         27.90788        23.33718         2.11374
C         26.62431        22.55095         2.10030
C         27.95312        24.66528         1.44688
C         26.72976        25.22761         0.94668
C         27.95850        27.28773         0.30451
C         26.72131        26.54200         0.43279
C         27.96636        28.63667        -0.04185
C         26.72991        29.35499        -0.39955
C         27.94202        31.58826        -0.46183
C         26.69409        30.83762        -0.28989
C         27.90989        32.93749        -0.66594
C         26.58822        33.68999        -0.62160
C         27.82863        35.85318        -0.92556
C         26.80161        35.10922        -0.06600
C         27.87108        37.31830        -0.62697
C         26.76594        37.98791        -0.16322
C         28.03894        40.11257        -0.09979
C         26.83932        39.42265         0.07876
C         28.25256        41.43903         0.41331
C         27.05046        42.10534         0.95994
C         28.37865        44.30516         1.07235
C         27.05670        43.59165         1.11172
C         28.41034        45.79097         0.91099
C         27.09096        46.50209         0.77854
C         28.36185        48.61964         0.17929
C         27.07075        47.97273         0.55793
C         28.34087        50.11679         0.01855
C         27.05703        50.84800         0.20628
C         28.32711        52.99153         0.58464
C         27.05064        52.20450         0.37925
C         28.32283        54.16225        -0.36653
C         27.14351        54.79407        -0.77206
C         27.20523        56.01605        -1.49442
C         29.48664        12.78866         0.28356
C         30.54489        14.61437         1.54952
C         29.46160        14.10032         0.91564
C         30.56275        15.95375         2.25456
C         29.29307        16.73636         2.10764
C         30.37772        18.90153         1.70139
C         29.33019        18.16803         2.55917
C         30.44178        20.38196         2.02158
C         29.19333        21.06537         2.28090
C         30.50023        23.26680         2.11003
C         29.20373        22.55292         2.33518
C         30.46000        24.73416         1.65752
C         29.17384        25.34740         1.26045
C         30.45966        27.25148         0.30251
C         29.21882        26.62388         0.61167
C         30.46711        28.55729        -0.50279
C         29.24317        29.37692        -0.14089
C         30.45605        31.41327        -1.12431
C         29.23552        30.84706        -0.40248
C         30.42540        32.95579        -1.19295
C         29.13918        33.69876        -1.01839
C         30.36545        35.85320        -0.67033
C         29.17786        35.16795        -0.77775
C         30.34943        37.35217        -0.40035
C         29.12995        37.98967        -1.10640
C         30.41947        40.20101        -1.03799
C         29.12375        39.49118        -0.88420
C         30.60799        41.52923        -0.39007
C         29.47457        42.10907         0.30108
C         30.90447        44.26414         0.57064
C         29.62709        43.49778         0.81947
C         30.86256        45.75301         0.43682
C         29.67346        46.48742         0.54809
C         30.84680        48.65922         0.25630
C         29.64769        47.90582         0.36097
C         30.82883        50.05353         0.19081
C         29.62015        50.83658         0.19485
C         29.59465        52.18991         0.41715
C         31.76607        16.80858         1.93205
C         32.91234        18.94007         1.66680
C         31.70870        18.16983         1.78782
C         32.90797        20.33075         1.67371
C         31.65593        21.06385         1.85188
C         32.91680        23.17971         1.58689
C         31.71643        22.49503         1.84433
C         32.91791        24.57366         1.27042
C         31.70755        25.29590         1.12615
C         32.96681        27.19272         0.16189
C         31.67839        26.57884         0.53334
C         32.99231        28.63759        -0.30198
C         31.73582        29.38974        -0.36421
C         32.90668        31.55376        -0.41913
C         31.73629        30.79041        -0.56703
C         32.98340        33.00286        -0.68570
C         31.69416        33.74871        -1.06119
C         32.85658        35.89554        -0.63583
C         31.63907        35.18095        -0.76734
C         32.87033        37.31760        -0.71752
C         31.63401        38.05069        -0.82564
C         32.90528        40.02297        -1.70775
C         31.64142        39.37051        -1.20414
C         32.80277        41.63036        -1.59736
C         31.81948        42.15757        -0.55489
C         32.94671        44.37603        -0.97331
C         32.13553        43.52216         0.03746
C         33.14205        45.77658        -0.44561
C         32.09160        46.45029         0.10435
C         32.17766        47.93698         0.40558
C         34.13747        21.05856         1.60172
C         35.40337        23.18101         1.51015
C         34.17175        22.44845         1.55897
C         35.43221        24.56131         1.35224
C         34.17587        25.26386         1.10217
C         35.38095        27.42893         1.10026
C         34.19713        26.58675         0.70407
C         35.46177        28.78280         0.46087
C         34.28595        29.38201        -0.18230
C         35.31344        31.62883         0.43621
C         34.20788        30.88459        -0.21908
C         35.26273        33.13635         0.43273
C         34.10274        33.81164        -0.18198
C         35.27803        35.98025        -0.05426
C         34.09553        35.19706        -0.34412
C         35.31518        37.35593        -0.32653
C         34.10310        38.04015        -0.70508
C         35.37984        40.07190        -1.23546
C         34.13559        39.38948        -1.12951
C         35.41193        41.47602        -1.81488
C         34.17590        42.28428        -1.47838
C         34.22617        43.61249        -1.25471
C         36.66284        25.30258         1.29678
C         37.89213        27.44460         1.09013
C         36.69354        26.67862         1.10711
C         37.87558        28.84150         0.95568
C         36.62944        29.52070         0.62670
C         37.77855        31.71592         0.72406
C         36.62113        30.96060         0.53957
C         37.74319        33.17221         0.69145
C         36.54098        33.85306         0.53370
C         37.84799        36.10019         0.40238
C         36.46773        35.31611         0.48186
C         37.79102        37.41815        -0.20284
C         36.57636        38.07222        -0.41089
C         36.55389        39.42900        -0.88233
C         39.06130        29.63250         1.02490
C         40.25220        31.79685         0.91396
C         39.03644        31.01846         0.89398
C         40.23798        33.14880         0.75136
C         39.00527        33.90422         0.63976
C         39.04702        35.26198         0.39102
O         27.21196        18.33484         3.72650
O         26.39334        13.01637        -1.66182
O         34.90020        32.34803         1.64187
O         10.88553        35.42090         2.48001
O         22.67179        42.08958        -0.26274
O         30.58660        43.71999         1.90535
O         26.94827        47.42282         1.91582
O         25.36054        33.29345         1.61329
O         22.18723         8.68805        -1.83578
O         18.42336        15.90728         1.98250
O         15.66051        36.64179         3.19536
O         29.43105        40.21971        -2.13787
O         14.81759        44.44282         2.27128
O         28.28691        49.23787        -1.15656
O         28.50902        23.20775         3.43337
O         20.33300        45.69835        -1.15309
O         17.46441        31.14330         2.63842
O         29.50139        30.34260         0.95087
O         32.65855        33.36830        -2.08888
O         21.70003        50.20847        -1.98418
O         26.09917        28.78145        -1.60987
O         20.97374        24.36988        -0.75370
O         26.39783        16.99652         0.31704
O         22.79722        19.55263         3.23070
O         18.49080        36.53582         3.11707
O         22.30508        42.38864         3.30591
O         29.66484        33.38573        -2.37170
O         28.51027        45.16755         2.24116
O         18.57305        13.45697         0.98919
O         32.20170        42.04130        -2.79984
O         23.08805        53.96572         0.91963
O         12.95307        36.72919         3.07208
O         23.91155        30.24691        -1.37359
O         14.52979        22.72496         2.32828
O         37.05661        35.98164         1.62693
O         30.65391        24.35792         3.06271
O         11.80704        25.07664        -1.69023
O         34.64401        30.13552        -1.40370
O         26.37517        22.01808         3.45255
O         22.20094        26.83411        -1.19187
O         24.73395         8.52090        -1.17564
O         25.37447        46.07753        -0.97564
O         17.91735        48.60406         1.37175
O         27.01404        42.77253         2.31158
O         33.05933        27.52998        -1.29133
O         25.58553        53.41535         1.84720
H         24.68040        53.81677         1.90071
O         30.35650        30.93497        -2.48098
H         30.91525        31.50231        -3.05282
O         33.02274        43.29634         1.16243
H         32.44490        43.12520         1.94274
O         27.84624        15.12440         3.08881
H         28.72504        14.98506         3.51821
O         25.99537        33.70348        -1.93311
H         26.58216        34.22869        -2.53072
O         19.82415        51.98916        -2.80932
H         20.57275        51.36031        -2.96227
O         15.14673        14.57259        -2.23378
H         15.66617        15.13507        -2.84329
O          8.20143        33.74529        -2.18269
H          7.68349        34.16021        -2.90329
O         13.80467        25.28458         2.50268
H         13.91485        24.36536         2.85357
O         28.64809         8.61662        -2.54756
H         29.32175         8.80423        -1.85399
O          7.47775        33.38733         1.39630
H          8.08474        33.27939         2.15835
O         17.89494        45.04835        -1.18987
H         18.75293        44.93565        -1.67124
O         25.82893        43.65660        -0.84176
H         25.33523        44.29009        -1.42034
O         29.27995        37.72406        -2.52188
H         29.41580        38.60864        -2.95304
O         30.65547        15.62278         3.69877
H         30.62419        16.49752         4.16527
O         13.70517        17.64718         1.53257
H         13.56692        18.48995         2.03500
O         30.16398        37.57057         1.01788
H         30.85177        37.07339         1.50707
O         32.64114        48.12401         1.75671
H         32.02035        47.66532         2.36020
O         35.10816        27.73884         2.52899
H         35.20442        26.90174         3.03343
O         18.91827        35.51129        -0.32456
H         19.58809        35.12544        -0.92818
O         29.88886        18.79587         0.33734
H         30.58461        19.12755        -0.26773
O         17.81750        19.95178         2.99987
H         18.41586        19.22961         3.29068
O         33.03172        39.78277        -3.12821
H         32.60632        40.58952        -3.55076
O         32.17434        44.57123        -2.17311
H         32.11772        43.68344        -2.64415
O         29.83105        18.20675         3.93260
H         29.03810        18.13939         4.51480
O         21.06889        17.72694         3.18641
H         21.42579        18.43944         3.76830
O         17.11030        43.75190         2.98908
H         16.16824        43.72431         3.29258
O         19.71215        44.09994         2.98266
H         18.82778        43.90754         3.38712
O         24.60243        59.40604        -1.08069
H         23.82561        60.00127        -1.14604
O         27.42871        34.98522         1.23200
H         26.79912        34.49325         1.81525
O         13.42852        32.00322        -1.20664
H         13.36513        31.13209        -1.65343
O         25.89030        20.18283         0.45051
H         25.16263        19.78772        -0.07570
O         24.76117        11.94023         1.40093
H         24.08974        12.34273         2.00490
O         14.67090        38.58919        -0.26750
H         14.89351        39.16983        -1.02511
O         21.00135        40.02426         3.28752
H         21.66148        40.70945         3.58052
O         11.21046        20.48290        -1.48539
H         11.69343        20.86702        -2.24512
O         36.60303        42.15423        -1.41774
H         36.51886        42.39399        -0.47213
O         30.35910        28.15315        -1.89015
H         31.24610        27.81393        -2.15739
O         29.50364        10.09405        -0.44652
H         29.18589         9.90921         0.46177
O         18.45707        41.19300        -0.44164
H         18.53116        41.99921        -0.99413
O         24.04890        21.70062         3.29347
H         23.90921        20.99154         3.95916
O         24.51102        41.82866         2.71785
H         25.34967        42.17725         3.10504
O         27.48464        35.75505        -2.33578
H         28.12281        36.34814        -2.81267
O         23.22688        13.88211         2.27297
H         22.39032        14.11915         2.72870
O          7.82269        28.70437         1.48038
H          7.69831        29.60888         1.84076
O         18.19066        40.63296         3.17658
H         19.05245        40.39674         3.59615
O         24.04997        57.48252        -4.17405
H         23.28022        56.97870        -4.51152
O         28.34242        53.51074         1.95120
H         27.40413        53.68414         2.21068
O         14.04431        39.17565         3.26324
H         13.81513        38.52111         3.95963
O         13.59362        20.36547         2.24434
H         14.05002        20.92218         2.91932
O         21.07720        18.69645        -0.32398
H         20.52145        19.29120        -0.87049
O         24.26942        14.57691        -1.16126
H         25.06166        14.31231        -1.69264
O         24.28630        21.87048        -0.32298
H         24.31423        22.69593        -0.87336
O         28.53437        15.70974        -0.50998
H         27.77452        16.31920        -0.67619
O         24.34712        24.57179        -1.17915
H         23.61372        25.03186        -1.65086
H          5.05711        31.37839        -1.16715
H          5.25969        33.81090        -1.45967
H          7.37990        26.94160        -0.76893
H          6.18005        29.16734        -0.89882
H          6.59843        35.99273        -1.14795
H          7.64893        38.05237        -0.32224
H          9.88392        22.56415        -0.91225
H          8.57919        24.81974        -0.82849
H          8.78534        40.10825         0.03726
H         10.01342        42.21000         0.04285
H         12.51082        18.44550        -1.04844
H         11.16598        20.59512         0.56290
H         11.25008        44.31233        -0.13815
H         12.48927        46.49368        -0.06554
H         15.09162        14.01069        -0.26333
H         13.66475        16.24829        -0.94872
H         13.71212        48.60370        -0.17688
H         15.00611        50.72041        -0.44545
H         17.90822        10.69714        -3.17901
H         16.50990        12.51338        -2.35921
H         16.26968        52.79287        -0.81793
H         17.54436        54.86056        -1.41952
H         20.97678         8.81292        -6.25952
H         19.33357         9.32229        -4.40771
H         18.90883        56.78594        -2.34343
H         20.25362        58.72402        -3.05867
H         25.02546         8.16941        -8.73252
H         22.65009         8.34455        -8.02772
H         23.88976        61.59547        -4.39498
H         21.64579        60.64184        -3.86883
H         26.86453         8.27634        -7.05390
H         27.63099         8.47440        -4.68253
H         27.10164        58.50996        -2.51999
H         25.95006        60.59051        -3.46403
H         27.15638         8.01088        -1.20649
H         28.95222        11.15251        -2.12254
H         29.28606        54.57208        -0.70821
H         28.19187        56.44891        -1.71780
H         30.43192        12.22362         0.30571
H         31.45355        14.00006         1.65434
H         31.78900        50.59150         0.21225
H         30.54038        52.72917         0.58285
H         32.75190        16.31631         1.94869
H         33.87394        18.40596         1.62597
H         34.06912        46.31805        -0.69364
H         32.94133        48.41125        -0.25983
H         35.07896        20.49059         1.56152
H         36.34912        22.62432         1.59205
H         35.45596        41.36913        -2.93431
H         35.19216        44.14354        -1.24782
H         37.60862        24.75265         1.42073
H         38.85697        26.92452         1.19092
H         38.72780        37.89829        -0.52382
H         37.50564        39.97485        -0.97015
H         40.02408        29.12794         1.19790
H         41.20870        31.26580         1.02801
H         41.18434        33.70924         0.73251
H         40.01540        35.74118         0.17941
