         324
 CSIRO Nanostructure Databank - Neutral Graphene Oxide Data Set
C          1.96388         4.17012        -3.76998
C          0.66946         4.71990        -3.53851
C          1.57436         6.42459        -1.95231
C          0.44632         5.81537        -2.74635
C          1.48027         7.90994        -1.61229
C          0.37522         8.69242        -2.07983
C          1.28429        10.71411        -1.00695
C          0.33638        10.04147        -1.89700
C          1.41339        12.21103        -1.22179
C          0.13506        12.93702        -0.88748
C          1.38271        15.02529        -0.66243
C          0.14345        14.27197        -0.68400
C          1.37117        16.45264        -0.64408
C          0.18698        17.20227        -0.60330
C          1.32748        19.35060        -0.25957
C          0.16790        18.59727        -0.43431
C          1.32631        20.77708        -0.05035
C          0.08908        21.50548         0.10181
C          1.23104        23.69005         0.09025
C          0.04034        22.85647         0.25474
C          1.22420        25.12085         0.51472
C          0.00542        25.84882         0.58792
C          1.19102        27.90660         1.09243
C         -0.01349        27.21423         0.82727
C          1.26909        29.32044         1.33175
C          4.42441         4.34364        -3.47529
C          3.11587         4.81351        -3.28607
C          4.08919         6.79351        -1.99540
C          2.90832         6.11582        -2.61058
C          3.82321         7.78863        -0.92982
C          2.54696         8.50007        -0.93511
C          3.68164        10.70073        -0.06501
C          2.46379         9.90892        -0.45495
C          3.73826        12.14355        -0.17934
C          2.60702        12.87245        -0.57231
C          3.82072        14.97602        -0.19287
C          2.60612        14.29651        -0.52944
C          3.96841        16.41754        -0.62347
C          2.65146        17.18684        -0.72141
C          3.85020        19.34903         0.03008
C          2.62949        18.68320        -0.45794
C          3.78735        20.74529         0.29618
C          2.54695        21.45663         0.10354
C          3.79411        23.62464         0.51095
C          2.57601        22.92524         0.08804
C          3.78522        25.14178         0.40800
C          2.43484        25.77379         0.76331
C          3.58919        27.80011         1.56194
C          2.39963        27.15819         1.11915
C          3.71148        29.22252         1.64349
C          2.47060        29.95227         1.53821
C          6.84908         4.36145        -2.93310
C          5.56396         4.95071        -2.84900
C          6.44522         6.56355        -1.21384
C          5.38351         6.09869        -2.01403
C          6.21364         7.59353        -0.16048
C          4.81996         8.03321        -0.03784
C          6.07260        10.68379         0.70509
C          4.75397        10.10122         0.55645
C          6.09603        12.13078         0.70652
C          4.91460        12.83047         0.31272
C          6.04891        14.99875         0.93689
C          4.91986        14.26155         0.26520
C          6.18819        16.43017         0.47769
C          5.09547        17.16306         0.06746
C          6.20413        19.28811         0.67677
C          5.07494        18.61714         0.17730
C          6.13986        20.69412         1.10456
C          4.93711        21.46172         0.72957
C          6.25135        23.59070         0.94292
C          4.93764        22.88951         0.80982
C          6.24087        25.10566         1.17079
C          4.90746        25.73470         1.23852
C          6.48163        28.00420         1.95098
C          4.67569        26.92550         1.87587
C          6.25615        29.32920         1.48816
C          4.94953        29.92040         1.61247
C          9.26231         4.31128        -2.29161
C          7.95387         4.90317        -2.23801
C          8.87297         6.75516        -0.81921
C          7.72334         6.03698        -1.39914
C          8.73060         8.02487        -0.04348
C          7.34781         8.47059         0.37507
C          8.47607        10.57602         1.30453
C          7.23610         9.90952         0.79235
C          8.53471        12.06482         1.32513
C          7.32348        12.82599         1.00993
C          8.54399        14.93815         1.33285
C          7.34832        14.22960         1.01064
C          8.65459        16.32433         1.13559
C          7.49799        17.06070         0.59376
C          8.70249        19.27872         1.18140
C          7.49209        18.62457         0.69591
C          8.73565        20.68341         1.38592
C          7.43398        21.40716         1.45698
C          8.66891        23.56904         1.43006
C          7.48468        22.87780         1.30851
C          8.68723        25.01238         1.47788
C          7.51509        25.75450         1.58032
C          8.71011        27.88838         1.09518
C          7.58907        27.20924         1.59681
C          8.59411        29.25376         0.67413
C          7.36107        29.94451         0.84040
C         11.53458         4.05704        -1.31362
C         10.29928         4.71673        -1.43009
C         11.09841         6.40097         0.35449
C         10.03170         5.87005        -0.53134
C         11.04484         7.79999         0.86012
C          9.86790         8.48975         0.79941
C         11.06708        10.48041         1.79244
C          9.77397         9.80727         1.45973
C         10.93314        11.93427         2.23194
C          9.70457        12.69045         1.69101
C         10.99722        14.94346         2.01736
C          9.69754        14.16935         1.84155
C         11.05543        16.37663         1.66552
C          9.90406        17.03388         1.26477
C         11.24018        19.24485         1.19710
C          9.93349        18.50459         1.01276
C         11.21955        20.65976         1.75978
C          9.92673        21.38697         1.52526
C         11.18406        23.53691         1.18339
C          9.96015        22.86689         1.80275
C         11.18787        24.91978         0.99604
C          9.99883        25.69060         1.43030
C         11.08899        27.74518         0.29844
C          9.99050        27.19091         1.08079
C         10.89315        29.04512        -0.26531
C          9.71291        29.79759        -0.01373
C         13.74792         3.74282        -0.19247
C         12.54134         4.46657        -0.37362
C         13.25952         6.04679         1.39121
C         12.35607         5.65177         0.39397
C         13.07182         7.33569         2.03859
C         12.17933         8.31106         1.62489
C         13.54423        10.45577         2.40495
C         12.23005         9.75087         1.98180
C         13.54268        11.97813         2.20841
C         12.22612        12.66432         1.87747
C         13.61207        14.80847         2.00647
C         12.25244        14.15488         1.83465
C         13.62221        16.31134         2.12023
C         12.34262        17.08410         1.88208
C         13.68014        19.27597         1.71995
C         12.43836        18.50484         1.55695
C         13.68023        20.71269         1.28899
C         12.45404        21.40480         1.30300
C         13.56972        23.45055         0.54142
C         12.39026        22.78787         0.99617
C         13.50506        24.83822         0.19913
C         12.32707        25.60013         0.45514
C         13.36918        27.61212        -0.62328
C         12.26732        26.99637         0.06782
C         13.12776        28.87704        -1.31426
C         11.90195        29.54034        -1.12340
C         15.99748         3.47933         0.85300
C         14.69996         4.12844         0.77728
C         16.26591         6.20680         2.18135
C         14.37960         5.21797         1.62579
C         16.22150         7.63669         2.23316
C         15.02574         8.34103         2.54414
C         16.16208        10.36943         2.38953
C         14.88643         9.72546         2.39678
C         16.11762        12.50329         2.06205
C         14.71169        12.99527         2.02893
C         15.71411        14.78245         0.63135
C         14.58073        14.16384         1.06590
C         15.94645        16.22152         0.93787
C         14.93174        16.97826         1.74457
C         16.22672        19.16044         1.20661
C         14.97404        18.48521         1.71634
C         16.18494        20.66949         0.98612
C         14.87826        21.38620         0.93744
C         15.96134        23.42994        -0.04825
C         14.81190        22.74025         0.47688
C         15.85775        24.73716        -0.56209
C         14.64265        25.47586        -0.37570
C         15.78784        27.44026        -1.22329
C         14.58078        26.85868        -0.73030
C         15.33686        29.17115        -2.42188
C         13.96045        29.40944        -2.36138
C         18.44418         3.42232         0.90946
C         17.19357         4.10656         1.17527
C         18.50661         6.23629         1.27354
C         17.29846         5.51223         1.55790
C         18.52966         7.65691         1.37982
C         17.35043         8.36422         1.76534
C         18.45883        10.57166         1.37454
C         17.33456         9.78530         1.85995
C         18.34992        11.97044         1.03140
C         17.10771        12.76791         1.15585
C         18.07799        14.68070        -0.25647
C         16.82463        13.88420         0.12467
C         18.12358        16.16252        -0.22994
C         17.07452        16.94979         0.29632
C         18.30251        18.98446        -0.24203
C         17.22744        18.35447         0.43905
C         18.46584        20.46301        -0.27640
C         17.37532        21.31955         0.32538
C         18.35694        23.32619        -0.97681
C         17.27379        22.76139        -0.07168
C         18.10791        24.63391        -1.60833
C         16.95807        25.33321        -1.32026
C         17.78621        27.29691        -2.69938
C         16.84753        26.71499        -1.76093
C         17.47304        28.46154        -3.50198
C         16.22371        29.16371        -3.50454
C         19.62629         4.09415         0.80371
C         20.87506         6.26389         0.72721
C         19.68641         5.53201         0.92066
C         20.88789         7.65339         0.81095
C         19.71580         8.38737         1.10383
C         20.74867        10.53272         0.48875
C         19.64882         9.84528         1.03336
C         20.64668        11.87280         0.16078
C         19.45348        12.57728         0.37610
C         20.63038        14.77936        -0.18950
C         19.40633        13.96638        -0.15933
C         20.57447        16.06905        -0.60541
C         19.32397        16.79230        -0.64235
C         20.38038        18.84063        -1.57817
C         19.32760        18.20553        -0.82120
C         20.36535        20.17331        -1.86092
C         19.38282        21.05912        -1.28904
C         20.12409        22.97504        -2.69061
C         19.33248        22.40856        -1.61105
C         20.09557        24.28448        -3.02484
C         19.31199        25.30594        -2.22625
C         19.89366        27.06376        -3.92341
C         18.97901        26.57184        -2.99550
C         19.60879        28.21692        -4.67612
C         18.40326        28.86464        -4.50247
O         10.17774        14.61404         3.16711
O         15.20052         5.47352         2.73550
O          3.55803         7.21220        -3.31230
O          6.79204         7.37348         1.17619
O         16.33328        11.57139         3.07882
O          7.80308        17.88962        -0.55354
O          1.28684        10.23487         0.36425
O          2.72229        18.13301        -1.84230
O         10.01359         5.53255         0.90150
O         16.65894        20.08916         2.24076
O         18.39948        23.50848         0.48917
O          5.58815        27.41496         2.83679
O         15.90682        28.82668        -1.17573
O         10.30866        26.67904         2.43439
O         13.95972         7.61958         3.07062
O         18.68380        14.09342        -1.45398
O         16.07029        16.38556         2.42752
O          8.83876         9.93182         2.60990
O         13.44199        11.37738         3.52624
O         14.46394        19.05042         2.95219
O          1.97410        23.48868        -1.15519
O         18.60256        21.05526         1.05724
O         14.33542        14.03532         3.08260
O          9.09184         8.06884        -1.47666
O          6.55865        20.92839         2.53269
O         12.20382        13.34187         0.59221
O          6.44775        24.51040        -0.17054
O          4.56284         8.81900         1.08970
O         10.72743        19.00195        -0.15209
O         12.93392        16.81324         3.27594
O         10.09158        23.02143         3.24999
H         10.62101        22.25766         3.58574
O         20.16187        25.71580        -1.10794
H         20.12747        25.01066        -0.42561
O          4.45545        16.27960        -1.99743
H          4.18474        17.10294        -2.47038
O         11.31271        20.50354         3.21746
H         12.12146        19.98324         3.42886
O          1.60761         5.69726        -0.68106
H          0.79904         5.92884        -0.17777
O          5.62714        15.13203         2.34902
H          5.62301        14.23406         2.74498
O         16.32122        13.23848        -1.06523
H         17.09301        13.13327        -1.67269
O         10.79770        11.92237         3.66585
H         10.05992        11.31033         3.88486
O          4.00484        25.48071        -0.99310
H          3.36544        24.93594        -1.51060
O          1.60820        12.34867        -2.66842
H          1.73013        13.30208        -2.86446
H          2.05727         3.23970        -4.34818
H         -0.19020         4.22243        -4.01251
H         -0.58850         6.13556        -2.55239
H         -0.37187         8.21471        -2.72956
H         -0.38652        10.65598        -2.45199
H         -0.81362        12.38148        -0.90636
H         -0.80739        14.79666        -0.51876
H         -0.78322        16.69051        -0.64908
H         -0.81437        19.08642        -0.38716
H         -0.84548        20.93585         0.19635
H         -0.90812        23.33135         0.54291
H         -0.94278        25.33293         0.38292
H         -0.96696        27.76117         0.81282
H          0.34106        29.91016         1.29852
H          4.57915         3.41359        -4.04352
H          2.49759        31.04706         1.64342
H          6.98742         3.46140        -3.55007
H          4.88469        31.00616         1.43502
H          9.42212         3.44860        -2.95549
H          7.26316        30.96664         0.44917
H         11.72661         3.16707        -1.93136
H          9.64224        30.81387        -0.42881
H         13.95114         2.86753        -0.82693
H         11.72726        30.48832        -1.65324
H         16.06613         2.47285         0.40915
H         13.46994        29.99619        -3.15271
H         18.41438         2.33503         0.74396
H         15.93750        29.68603        -4.43022
H         20.55360         3.54773         0.57697
H         21.80574         5.72722         0.49281
H         21.84141         8.17028         0.64061
H         21.67709        10.00181         0.24663
H         21.49251        12.36610        -0.33518
H         21.59700        14.32468         0.06547
H         21.50631        16.64269        -0.70560
H         21.16493        18.20954        -2.01708
H         21.15304        20.58606        -2.50466
H         20.75634        22.29919        -3.28407
H         20.72698        24.62098        -3.85962
H         20.85268        26.55374        -4.08391
H         20.33570        28.58221        -5.41431
H         18.16029        29.74362        -5.11686
