         294
 CSIRO Nanostructure Databank - Neutral Graphene Oxide Data Set
C          1.49437         2.27730        -2.54294
C          1.26804         3.52684        -2.02939
C          2.79924         1.71195        -2.60194
C          2.38736         4.41077        -1.69259
C          1.01952         6.57123        -1.18193
C          1.08138         7.87433        -0.87188
C          2.15664         5.65935        -0.87732
C          2.41765         8.55540        -0.66316
C          1.14900        10.53187         0.60455
C          1.17008        11.71986         1.24325
C          2.33098         9.99446        -0.12475
C          2.40589        12.53589         1.39487
C          1.34131        14.85934         1.00804
C          1.39009        16.14370         0.56347
C          2.35530        14.01946         1.78218
C          2.51896        17.07150         0.51013
C          2.54095        18.23367        -0.32418
C          3.91667         2.39439        -2.12697
C          3.79261         3.82273        -1.75386
C          5.15627         1.72640        -1.90484
C          4.85985         4.31795        -0.82701
C          3.32825         6.20660        -0.14163
C          3.50757         7.71263         0.04978
C          4.52798         5.33407         0.01791
C          4.84796         8.42734         0.16829
C          3.64781        10.66991         0.14022
C          3.68673        11.96127         0.89782
C          4.89662         9.91333         0.14475
C          4.85283        12.80320         0.41429
C          3.73935        14.62316         1.67233
C          3.72182        16.79249         1.16967
C          4.82928        14.19921         0.99826
C          4.95097        17.31201         0.73419
C          3.68537        19.00026        -0.47771
C          4.95753        18.54535         0.01033
C          6.31551         2.36741        -1.45552
C          6.27364         3.88893        -1.24212
C          7.45971         1.59970        -1.12622
C          7.52858         4.30203        -0.38233
C          6.83916         6.72496         0.67436
C          6.15495         7.76149        -0.26156
C          7.70405         5.79478        -0.17206
C          7.37380         8.69906        -0.34387
C          6.11718        10.54645         0.78405
C          6.16754        12.07866         0.69303
C          7.38660         9.93636         0.21589
C          7.32091        12.76483         0.88130
C          6.07445        15.01418         0.64026
C          6.15108        16.52978         0.89112
C          7.33727        14.27741         1.13456
C          7.35594        17.18106         0.70345
C          6.19685        19.19115        -0.15757
C          7.40128        18.58281         0.32284
C          8.70018         2.19413        -0.79543
C          8.75291         3.66782        -1.14068
C          9.79257         1.51050        -0.26494
C         10.06353         4.36537        -0.84522
C          8.75300         6.51210        -0.64573
C          8.66958         8.00535        -0.67860
C         10.06415         5.88186        -1.05231
C          9.95319         8.76661        -0.54964
C          8.68382        10.50627         0.83922
C          8.61704        12.05074         1.26391
C          9.86715        10.25002        -0.16890
C          9.87739        12.84661         0.89511
C          8.60462        14.96713         0.54493
C          8.62697        16.44287         0.92973
C          9.87342        14.21830         0.87874
C          9.90597        17.20435         1.02046
C          8.61582        19.27426         0.29863
C          9.91433        18.76176         0.86356
C         11.00965         2.16951         0.08810
C         11.15466         3.63321        -0.15944
C         12.15734         1.48532         0.44478
C         12.06185         4.44035         0.77155
C         11.21118         6.58684        -0.33696
C         11.18431         7.96988        -0.25861
C         12.34856         5.83730         0.20999
C         12.38138         8.67890         0.08307
C         11.14563        10.80744         0.40569
C         11.13680        12.11842         0.81100
C         12.37201        10.03736         0.36976
C         12.42475        12.83885         1.14597
C         11.12914        14.97925         0.62017
C         11.24673        16.46656         0.96928
C         12.42870        14.26371         0.63871
C         12.29003        17.11836         0.04684
C         11.08505        19.21618         0.03421
C         12.43179        18.66488         0.35995
C         13.39570         2.16249         0.75921
C         13.35143         3.61956         1.11198
C         14.58147         1.47622         0.80751
C         14.69154         4.36336         1.27466
C         13.53375         6.47676         0.44567
C         13.64249         7.89983         0.03464
C         14.72233         5.89616         1.20060
C         14.96100         8.61447         0.05744
C         13.61700        10.75238         0.48998
C         13.64219        12.11476         0.64709
C         14.92521        10.11557         0.13499
C         14.84784        12.84296         0.27195
C         13.74547        15.03571         0.73367
C         13.62856        16.40167         0.06924
C         14.87560        14.19831         0.16650
C         14.69447        17.00987        -0.52321
C         13.57331        19.20436        -0.48541
C         14.61300        18.43000        -0.88373
C         15.84961         2.09659         1.33738
C         15.88978         3.58504         1.08499
C         17.12390         1.39368         0.90287
C         17.23194         4.21781         1.27939
C         16.06046         6.38406         0.56297
C         16.16729         7.90396         0.57964
C         17.25729         5.71297         1.15863
C         17.28536         8.56590         1.00175
C         16.07276        10.77620         0.84636
C         15.98685        11.93396        -0.12054
C         17.32461        10.04909         1.07651
C         17.31206        12.51580        -0.63596
C         16.13422        14.93123        -0.19288
C         15.87702        16.20215        -1.04230
C         17.21573        14.05685        -0.83201
C         17.15092        17.00422        -1.20898
C         15.72259        18.98974        -1.74614
C         17.09039        18.38504        -1.48965
C         18.28260         2.03340         0.58580
C         18.31532         3.53726         0.42793
C         19.50130         1.34886         0.17468
C         19.69363         4.15939         0.77006
C         18.55793         6.34938         1.23746
C         18.60426         7.90023         1.19225
C         19.67630         5.66641         0.46302
C         19.78455         8.52557         0.65759
C         18.63583        10.80605         0.94477
C         18.52129        12.10811         0.18439
C         19.72292         9.95429         0.19199
C         19.77940        12.94042         0.15129
C         18.47271        14.81337        -1.09631
C         18.42950        16.29872        -1.34768
C         19.80399        14.10615        -0.91815
C         19.69522        17.05340        -1.67199
C         18.24052        19.14989        -1.64648
C         19.61554        18.57418        -1.90152
C         20.66485         2.00981        -0.11218
C         20.82892         3.43448         0.08382
C         22.00662         4.12030        -0.06227
C         21.04359         6.30736         0.57728
C         21.13176         7.82404         0.81443
C         22.11994         5.52886         0.27341
C         22.14257         8.47824        -0.11263
C         21.11360        10.67485         0.33407
C         21.03588        12.12264        -0.11727
C         22.12155         9.79279        -0.37560
C         22.17760        12.80855        -0.57447
C         21.01512        15.04631        -0.61437
C         20.99583        16.43311        -1.28023
C         22.23081        14.17462        -0.82731
C         22.05570        17.25654        -1.05161
C         20.77152        19.32989        -1.30903
C         21.94128        18.70294        -1.06679
O          9.20460        16.78536         2.24424
O          8.83504         9.73501         1.97256
O         11.37986         4.57774         1.96587
O         16.49537        10.64277         2.20589
O         13.88749         3.85607         2.42611
O         17.61158        14.31012        -2.19185
O          4.05147         8.00315         1.37416
O          9.36790         8.53165        -1.87053
O         11.77418        14.51700        -0.63812
O         18.98729        16.42214        -2.76892
O          3.77119        15.90446         2.24029
O         15.39483        10.91423        -1.08536
O         14.44497         8.08720        -1.20195
O          2.87641        10.91291        -1.12433
O         18.87403         7.12819         2.42718
O          2.22381         5.55675         0.60351
O          7.10369         6.95318         1.84170
O          3.39620        11.88047         2.30770
O          3.30555         4.69370        -2.82558
O         11.22560         3.83996        -1.61709
O         11.80472        17.07269        -1.30740
H         11.81689        16.12533        -1.59095
O         21.50553        10.74641         1.72348
H         21.57718         9.82057         2.07630
O          5.19446         5.52938         1.18599
H          4.77171         6.27385         1.68903
O          9.56417        11.01622        -1.34848
H          9.31937        10.36110        -2.05001
O         20.10339        13.47704        -2.17879
H         19.23645        13.28382        -2.61375
O         21.10115        15.47986         0.76925
H         20.98374        14.70123         1.37009
O         10.27737         6.10397        -2.46405
H         11.07224         5.58360        -2.71504
O          6.40719         4.60413        -2.49134
H          5.62364         4.41975        -3.05199
O          6.10520        14.99888        -0.82567
H          5.43611        15.63928        -1.14808
O          8.64844        12.06383         2.71282
H          8.75462        11.09140         2.95927
O          8.60299         3.74564        -2.57183
H          9.50503         3.70427        -2.95551
O         19.97669         4.05933         2.17696
H         19.75097         3.15694         2.48313
O         15.40651        18.63560        -3.11578
H         14.49047        18.93055        -3.30133
O         16.01794         5.90153        -0.80700
H         16.93921         5.82825        -1.14756
O          6.13479        10.18064         2.19144
H          7.04058         9.81703         2.39494
O          2.94684         8.61023        -2.01527
H          3.13971         9.56023        -2.22018
O          7.45196         3.66104         0.89757
H          6.94142         4.23808         1.50660
O         11.75850        16.50983         2.32717
H         10.98835        16.34334         2.92104
O         12.76989        18.86481         1.73238
H         11.93506        19.05898         2.22709
O         14.12065        15.27260         2.11508
H         13.38098        15.78929         2.53074
O         17.55834        11.95079        -1.94772
H         16.92116        11.20988        -2.08301
O         16.70890        15.38184         1.06654
H         15.96713        15.51042         1.71063
O         15.46940        15.80018        -2.37271
H         15.47165        16.61195        -2.93545
O          7.36938        14.45407         2.56005
H          7.83942        13.67535         2.95352
O         19.10144        11.03275         2.29707
H         18.29502        11.14676         2.85276
O          4.67777        12.84999        -1.02342
H          5.36989        13.46497        -1.37168
O         15.79041         1.91417         2.81778
H         14.96064         2.37548         3.10265
O         21.56734         8.01644         2.19850
H         20.83863         7.65649         2.76067
O         10.07592        19.29494         2.22119
H          9.49261        18.75179         2.80069
O         19.30946         9.98744        -1.19078
H         19.93251         9.44261        -1.71601
O          5.82463         7.17336        -1.52421
H          6.51838         6.53978        -1.83210
O         14.67236         6.41972         2.53648
H         13.99077         5.90463         3.02564
O          1.92377        14.06189         3.16184
H          2.50728        13.44901         3.66078
O          8.58599        14.97966        -0.90308
H          8.65049        14.05551        -1.22488
O         12.52875        12.94702         2.59575
H         12.45099        12.04701         2.97631
O         17.99027         3.78145        -0.96088
H         18.39816         3.07364        -1.50168
O         19.74082        18.78115        -3.34873
H         19.26722        18.02014        -3.76507
O         19.85946        13.44300         1.53154
H         19.87534        12.62876         2.10502
O         17.53103         3.95280         2.69185
H         16.97632         3.18880         3.00461
O         19.29402         5.91195        -0.92527
H         19.90586         5.40402        -1.49957
H          0.64027         1.64719        -2.82930
H          0.24125         3.87237        -1.84078
H          2.90748         0.66522        -2.92198
H          0.07094         6.11509        -1.50450
H          0.20236         8.51559        -1.03760
H          0.22304         9.93680         0.59976
H          0.25771        12.08736         1.73761
H          0.37166        14.34815         0.88081
H          0.47580        16.51504         0.06931
H          1.60942        18.54882        -0.81731
H          5.19498         0.64207        -2.09932
H          3.63979        19.93606        -1.05279
H          7.36253         0.50139        -1.10472
H          6.24901        20.17744        -0.64138
H          9.71860         0.42466        -0.09251
H          8.59059        20.34604         0.04614
H         12.15092         0.38492         0.47933
H         10.87735        19.46090        -1.02074
H         14.58698         0.39947         0.57684
H         13.58594        20.28487        -0.70252
H         17.11206         0.29194         0.93910
H         15.76274        20.11101        -1.65507
H         19.46744         0.25288         0.07776
H         18.12326        20.21882        -1.88777
H         21.53779         1.43310        -0.45542
H         22.90656         3.60467        -0.43064
H         23.13046         5.96342         0.25362
H         22.89546         7.83991        -0.60010
H         22.86043        10.22632        -1.06732
H         23.11306        12.23695        -0.68678
H         23.20317        14.63703        -1.05616
H         23.00321        16.83135        -0.68898
H         20.69356        20.42471        -1.24013
H         22.81770        19.28145        -0.73986
