         257
 CSIRO Nanostructure Databank - Neutral Graphene Oxide Data Set
C        -11.28515         0.51446        -0.88276
C        -10.07485         1.35783        -1.06758
C         -8.73525         0.57718        -0.87951
C         -7.54433         1.35570        -0.41000
C         -6.26121         0.58844        -0.23475
C         -5.08222         1.39135         0.24277
C         -3.92444         0.72993         0.92801
C         -2.58453         1.46119         1.02380
C         -1.29047         0.67876         1.06551
C          0.02717         1.40005         1.16223
C          1.28547         0.67263         1.60041
C          2.59391         1.42702         1.64189
C          3.91170         0.70026         1.40189
C          5.18500         1.49299         1.18319
C          6.28715         0.88127         0.34203
C          7.59035         1.58520         0.16902
C          8.88025         0.80395         0.05775
C         10.03175         1.58332        -0.53727
C         11.09225         0.79859        -1.20461
C         -9.99410         2.76646        -0.75869
C         -8.77748         3.55265        -1.21389
C         -7.50978         2.83060        -0.63070
C         -6.16446         3.50013        -0.89054
C         -4.88842         2.69994        -0.47363
C         -3.59427         3.44788        -0.30987
C         -2.47406         2.86698         0.51254
C         -1.11917         3.51534         0.37065
C          0.01254         2.91144         1.18541
C          1.29451         3.67582         1.34091
C          2.60941         2.95587         1.57284
C          3.89429         3.73841         1.43969
C          5.22534         3.01201         1.27630
C          6.48952         3.75495         0.90232
C          7.85167         3.02412         0.64307
C          8.73526         3.69941        -0.41437
C          9.77677         2.99103        -0.93247
C         -8.80876         5.02521        -0.74972
C         -7.93137         5.98577        -1.01795
C         -5.99985         4.78844        -0.05233
C         -4.87147         5.66654        -0.54809
C         -3.55919         4.94056        -0.58662
C         -2.26424         5.71323        -0.46730
C         -1.05497         4.97332         0.02853
C          0.05277         5.76658         0.67554
C          1.40288         5.03882         0.63918
C          2.54669         5.92723         1.10839
C          3.94874         5.29051         1.34122
C          4.98699         5.80382         0.34253
C          6.29374         5.08834         0.21684
C          7.48068         5.82208        -0.30309
C          8.58939         5.12505        -0.65701
C         -7.35415         7.14644        -1.33309
C         -6.21273         7.85888        -0.65731
C         -4.92486         7.13226        -0.29830
C         -3.61360         7.87532        -0.13709
C         -2.28032         7.21893        -0.45776
C         -1.01303         7.97838        -0.07575
C         -0.05265         7.25734         0.84145
C          1.13219         8.00588         0.25501
C          2.45603         7.34394         0.61809
C          3.72890         8.06754         0.28880
C          4.98927         7.29422         0.10433
C          6.06707         7.89941        -0.80277
C          7.44565         7.33684        -0.41388
C         -6.05773         9.32014        -0.87827
C         -4.94210        10.00718        -0.54483
C         -3.68163         9.37920        -0.08838
C         -2.40572        10.11437        -0.09774
C         -1.20135         9.46561         0.15225
C         -0.02135        10.19497         0.42562
C          1.22557         9.50883         0.37109
C          2.40992        10.15343         0.08021
C          3.57078         9.37455        -0.47739
C          4.89390        10.09684        -0.52803
C          6.03764         9.41394        -0.67351
C        -11.28342        -0.83760        -0.79570
C        -10.06104        -1.68323        -0.77773
C         -8.76804        -0.91188        -0.66860
C         -7.71274        -1.49991         0.22065
C         -6.35783        -0.86391         0.12630
C         -5.25045        -1.52946         0.88271
C         -3.94943        -0.76490         1.14246
C         -2.65892        -1.51372         1.26209
C         -1.33685        -0.79072         1.37049
C         -0.04812        -1.54640         1.32107
C          1.28615        -0.83036         1.36328
C          2.54441        -1.51757         0.93728
C          3.86140        -0.77002         0.95455
C          5.05307        -1.40855         0.31019
C          6.28959        -0.59585         0.03902
C          7.57566        -1.39078        -0.00663
C          8.90647        -0.70874         0.05296
C         10.07494        -1.41761        -0.61359
C         11.11100        -0.54977        -1.23179
C        -10.06901        -3.10119        -0.29444
C         -8.94863        -3.85992        -0.20777
C         -7.54897        -3.30748        -0.44603
C         -6.52350        -3.83527         0.57661
C         -5.28553        -3.03050         0.94125
C         -3.95916        -3.71337         0.74473
C         -2.66221        -2.95369         0.82181
C         -1.36381        -3.72535         0.78425
C         -0.05044        -3.01535         0.94790
C          1.11285        -3.53849         0.13311
C          2.42741        -2.76679         0.09487
C          3.64269        -3.43679        -0.47926
C          4.98257        -2.76395        -0.36144
C          6.25918        -3.56974        -0.25615
C          7.36393        -2.81751         0.44783
C          9.24820        -3.84210        -0.81272
C          9.99016        -2.80417        -1.17924
C         -9.02134        -5.34681         0.16266
C         -7.67902        -6.08531         0.18614
C         -6.52113        -5.32963         0.75381
C         -5.18587        -6.02404         0.92680
C         -3.91667        -5.21726         0.84378
C         -2.67813        -5.86585         0.27382
C         -1.44065        -5.05545         0.07625
C         -0.15830        -5.80170        -0.17682
C          1.07985        -4.94889        -0.38375
C          2.34386        -5.67209        -0.83593
C          3.65064        -4.90131        -0.89392
C          4.94350        -5.69082        -0.75729
C          6.12294        -5.04502        -0.05170
C          7.68456        -5.83892        -0.93280
C          8.88396        -5.07800        -0.46954
C         -7.61174        -7.42031        -0.03363
C         -6.37148        -8.21380         0.15796
C         -5.13466        -7.50285         0.59548
C         -3.83870        -8.04199        -0.06016
C         -2.59297        -7.35434         0.46923
C         -1.28635        -8.06611         0.53908
C         -0.06871        -7.27579         0.12100
C          1.35644        -7.66604         0.38594
C          2.38187        -7.17511        -0.62518
C          3.65162        -7.97380        -0.76954
C          4.94678        -7.20362        -0.85700
C          6.27914        -7.94674        -0.67389
C          7.47509        -7.15320        -0.35761
C         -6.19653        -9.54223        -0.48727
C         -5.00824       -10.19331        -0.49235
C         -3.75630        -9.55203        -0.08527
C         -2.56734       -10.20441        -0.00836
C         -1.21652        -9.60211         0.37460
C         -0.12202       -10.01174        -0.61769
C          1.18136       -10.01569        -0.37280
C          2.46073       -10.29641        -0.14839
C          3.66741        -9.47176        -0.50360
C          4.99213       -10.02037        -0.11031
C          6.15724        -9.34264        -0.18281
O         -9.12761        -1.55247        -1.90103
O         -1.99187        -7.69748         1.76224
O          5.21522         4.98182        -0.82092
O          2.80685        -2.54411        -1.29252
O          5.72945        -7.66198        -2.00202
O          1.75261        -8.02548         1.48680
O         -4.96211         1.42907         1.68495
O         -5.97155        -0.43397        -1.21538
O         -2.36217        -5.28324        -1.01702
O          2.08615        -1.61379         2.30838
O         -6.43704         4.88398         1.07503
O          6.61554         1.58338        -0.90871
O         -5.90828         7.46525         0.70803
O         -3.35211        -3.12477        -0.45206
O          6.11743         3.59294         2.28048
O         -0.69245        -1.23038         2.59515
O          7.79359        -3.22862         1.52324
O          4.52537        -5.12277        -2.02636
O          2.28689         6.98128         2.04279
O         -0.29752         6.40973         1.96432
O         -0.45725         0.91479        -0.13071
O          5.81763        -3.01966        -1.50991
O          3.31173         3.43877         2.75227
O          6.89714        -0.94682        -1.22009
O         -5.84025        -8.28982         1.56596
O         -2.09521         6.50295        -1.69520
O          9.93326        -1.32022         0.84634
O          4.91264         0.85178         2.44833
O         -4.40939        -5.69942         2.12051
O         -4.27144         5.27979        -1.80926
O          3.58428        -8.93680        -1.85879
O         -7.73906         2.29847         0.69858
O          9.90023         1.35650         0.91741
O         -7.10030        -3.19443        -1.63702
O         -9.18730         0.95786        -2.17724
O          1.87356         1.03799         2.85818
O          4.81292        -1.57295         1.73769
O          4.74953         8.06687         1.32131
O         -5.61036        -2.22641         2.11647
O         -0.57580        -3.86629         2.00649
O          0.33376         3.57352         2.42847
O         -0.28407        -6.78575        -1.22966
O         -3.87722         2.64763        -1.51251
O          2.02931        -6.58658        -1.90605
O          8.58281         2.98205         1.82141
O          0.70656        -3.82766        -1.23876
O          0.23008         7.91038        -1.06192
O         -0.67679         3.93074        -0.94836
O         -3.97147        -7.62579        -1.39839
O         -3.65573         8.54285         1.15235
O         -7.02575        -4.43397         1.80948
O         -2.70067         2.59903         1.92483
O         -3.43472        -1.17624         2.44247
O          1.78993         4.76790        -0.72645
H          1.02005         4.38571        -1.21720
O         -0.84464       -10.13756         1.65616
H         -1.37564        -9.66493         2.33471
O         -8.75275         3.51811        -2.64127
H         -7.84039         3.72686        -2.94861
O         -9.61040        -5.47846         1.46193
H         -8.95176        -5.14591         2.11296
O          7.82240         7.89381         0.85333
H          7.09654         7.74656         1.49716
O         -8.15951        -1.60452         1.52375
H         -7.40019        -1.85076         2.11719
O          4.43195         5.74499         2.60335
H          3.93146         5.28335         3.31203
O          7.39045        -5.61384        -2.24744
H          6.71524        -6.27487        -2.55267
O          5.79214         7.54229        -2.16669
H          4.94190         7.97023        -2.42282
O         -6.12504         3.71884        -2.30157
H         -5.18510         3.65987        -2.60414
O          3.23277         9.00598        -1.85946
H          2.27465         8.78992        -1.90622
O          6.14556        -5.35927         1.29643
H          6.77900        -4.74192         1.75509
H         11.91035        -1.05872        -1.79239
H         11.87390         1.35822        -1.74024
H         10.48222         3.46422        -1.63241
H          9.44094         5.65535        -1.11249
H          8.21019         7.66740        -1.15926
H          6.99711         9.95003        -0.72829
H          4.89651        11.19550        -0.46345
H          2.43257        11.25386         0.05318
H         -0.05161        11.29063         0.50416
H         -2.43583        11.21357        -0.05154
H         -4.90946        11.09170        -0.73014
H         -6.91463         9.86547        -1.30195
H         -7.73919         7.66284        -2.23411
H         -9.65375         5.30051        -0.08908
H        -10.75781         3.23340        -0.11913
H        -12.24746         1.04466        -0.81656
H        -12.24581        -1.35107        -0.64517
H        -11.05050        -3.55985        -0.09127
H         -9.70515        -5.86223        -0.56028
H         -8.50590        -7.95172        -0.39716
H         -7.09874       -10.04228        -0.87123
H         -4.95600       -11.22409        -0.87588
H         -2.56241       -11.29954        -0.13626
H         -0.45534       -10.30887        -1.62921
H          2.69396       -11.30124         0.25228
H          5.00292       -11.03962         0.30600
H          7.07942        -9.82384         0.17545
H          7.95124        -7.35097         0.61610
H          9.49581        -5.57992         0.30483
H         10.66714        -2.97784        -2.03920
