         429
 CSIRO Nanostructure Databank - Neutral Graphene Oxide Data Set
C          1.29068         2.12033         0.57630
C          1.28218         3.49363         0.91192
C          2.47035         1.40530         0.44872
C          2.45930         4.18922         1.19414
C          1.36650         6.42693         1.44311
C          1.42666         7.82731         1.47994
C          2.50331         5.60619         1.39357
C          2.62876         8.56159         1.43995
C          1.46778        10.76343         1.30402
C          1.48269        12.09128         1.06447
C          2.68629         9.98306         1.39948
C          2.75980        12.82863         0.78213
C          1.61764        14.97918         1.55196
C          1.61691        16.40719         1.71282
C          2.74306        14.28225         1.21574
C          2.79378        17.14304         1.73571
C          2.73833        18.59913         1.62330
C          3.72463         2.01430         0.72805
C          3.71553         3.38783         1.29137
C          4.93338         1.37779         0.47072
C          5.03178         4.04191         1.57735
C          3.82045         6.28881         1.34255
C          3.88789         7.79310         1.32067
C          5.07018         5.53921         1.69432
C          5.18027         8.46930         1.57047
C          3.93326        10.68929         1.44145
C          3.98753        12.07966         1.28336
C          5.16500         9.94065         1.91775
C          5.20927        12.81931         1.48290
C          4.03997        15.02345         1.01922
C          4.02708        16.39111         1.66267
C          5.26048        14.21055         1.42532
C          5.25230        16.93211         1.97620
C          3.76819        19.46283         1.37549
C          5.16102        19.06322         1.52301
C          6.20702         1.99584         0.63605
C          6.36572         3.29791         1.41049
C          7.35714         1.36023         0.20476
C          7.50772         4.14752         0.87152
C          6.36360         6.27485         1.54651
C          6.35178         7.76030         1.48348
C          7.54690         5.54511         1.03514
C          7.63594         8.41865         1.34842
C          6.46275        10.62615         1.54261
C          6.45748        12.06748         1.78202
C          7.72014         9.83597         1.87420
C          7.78264        12.82092         1.78103
C          6.50992        14.93630         1.51216
C          6.48720        16.33701         1.61464
C          7.77505        14.26735         1.50859
C          7.71666        17.21914         1.55745
C          6.24012        19.27325         0.71487
C          7.51327        18.53767         0.76393
C          8.62079         2.03616         0.16963
C          8.64777         3.47836         0.37489
C          9.78900         1.35942        -0.14958
C          9.82097         4.20983         0.04315
C          8.66462         6.29939         0.59138
C          8.69103         7.73989         0.78271
C          9.81673         5.62665         0.09649
C          9.74572         8.55029         0.06466
C          9.03585        10.56364         1.52702
C          9.05566        12.06381         1.52293
C         10.19338         9.78947         0.87691
C         10.17723        12.82717         0.91570
C          8.96921        14.97788         1.28318
C          8.92945        16.42652         1.09169
C         10.15792        14.22667         0.97001
C          9.99683        17.08936         0.54196
C          8.55140        19.08740         0.07883
C          9.82747        18.37135        -0.24477
C         11.03059         2.04365        -0.31834
C         11.03107         3.50331        -0.31246
C         12.22083         1.33799        -0.45751
C         12.19577         4.20297        -0.59032
C         10.99161         6.37285        -0.33702
C         10.96934         7.75944        -0.35738
C         12.20906         5.64182        -0.66184
C         12.09585         8.50460        -0.93346
C         11.10963        10.68960         0.03844
C         11.30058        12.11241         0.40474
C         12.18041         9.99491        -0.76057
C         12.46446        12.76687        -0.03883
C         11.39645        14.94002         0.63154
C         11.30991        16.44996         0.42127
C         12.52194        14.20828         0.01820
C         12.34730        17.12396        -0.36417
C         11.08701        19.19785        -0.29694
C         12.28680        18.53006        -0.56606
C         13.47834         2.00041        -0.63543
C         13.43197         3.46101        -1.03753
C         14.65905         1.30398        -0.59216
C         14.69174         4.23118        -0.75137
C         13.40876         6.31399        -0.95525
C         13.39795         7.75265        -1.23342
C         14.68916         5.62689        -0.92540
C         14.66346         8.51046        -1.30908
C         13.48523        10.67032        -0.93132
C         13.56833        12.02201        -0.59543
C         14.67369         9.93001        -1.29419
C         14.86420        12.69056        -0.70919
C         13.56249        14.91471        -0.55679
C         13.44753        16.34039        -0.90155
C         14.84861        14.25618        -0.77265
C         14.61043        17.06628        -1.54304
C         13.51661        19.20928        -0.97292
C         14.63372        18.53807        -1.37204
C         15.97114         1.98129        -0.61986
C         15.95475         3.49326        -0.61837
C         17.20349         1.28098        -0.99982
C         17.15286         4.20914        -1.15897
C         15.89786         6.38342        -1.04285
C         15.89840         7.78254        -1.29963
C         17.22194         5.68386        -0.82813
C         17.12500         8.47484        -1.57732
C         15.89751        10.63391        -1.56979
C         15.98755        12.00850        -1.35096
C         17.03403         9.85573        -2.20179
C         17.19141        12.76325        -1.55206
C         15.96572        14.91212        -1.41135
C         15.90923        16.33931        -1.91373
C         17.17650        14.19946        -1.50820
C         17.16894        17.07808        -1.52033
C         15.90373        19.23427        -1.81892
C         17.15679        18.47274        -1.43754
C         18.40616         1.95429        -1.20399
C         18.39515         3.42347        -1.42203
C         19.66439         1.30723        -1.24710
C         19.67320         4.14974        -1.51774
C         18.38519         6.37214        -1.48196
C         18.34629         7.75421        -1.65344
C         19.59617         5.59425        -1.80480
C         19.62160         8.51898        -1.62330
C         18.41288        10.67124        -2.39185
C         18.40552        12.09997        -1.86498
C         19.65743         9.96081        -1.87560
C         19.61089        12.80873        -1.85861
C         18.41188        14.92517        -1.58131
C         18.39021        16.35796        -1.43347
C         19.63246        14.22265        -1.64756
C         19.61107        17.05348        -1.22471
C         18.36180        19.14966        -1.15552
C         19.56779        18.45988        -1.03480
C         20.88523         2.02402        -1.32484
C         20.87680         3.48038        -1.46343
C         22.11844         1.35990        -1.27949
C         22.14642         4.19800        -1.54310
C         20.91571         6.31811        -1.98971
C         20.93550         7.77988        -1.68698
C         22.16285         5.57004        -1.77977
C         22.16304         8.54399        -1.89583
C         20.85829        10.63077        -1.85225
C         20.88512        12.09791        -2.24373
C         22.13511         9.93184        -1.78798
C         22.14548        12.81315        -1.81143
C         20.88288        14.93576        -1.52550
C         20.86549        16.33225        -1.26135
C         22.12409        14.21913        -1.59921
C         22.09218        17.04697        -1.08708
C         20.80887        19.22951        -0.66493
C         22.09552        18.46304        -0.85967
C         23.35977         2.06016        -1.28274
C         23.38469         3.48996        -1.37944
C         24.57841         1.36234        -1.22594
C         24.63422         4.18233        -1.30840
C         23.42998         6.28183        -1.96935
C         23.42320         7.82310        -2.10007
C         24.67749         5.60534        -1.56304
C         24.66322         8.56298        -1.85522
C         23.37623        10.67193        -1.79699
C         23.35690        12.08510        -1.78028
C         24.63343         9.94415        -1.73933
C         24.65598        12.83481        -1.92939
C         23.35934        14.93751        -1.38967
C         23.33437        16.34916        -1.15262
C         24.59769        14.25902        -1.43028
C         24.56391        17.05856        -0.99449
C         23.28574        19.15484        -0.75411
C         24.54851        18.49234        -0.81076
C         25.83545         2.00043        -1.07820
C         25.84188         3.47060        -1.02226
C         26.96662         1.13627        -1.17476
C         27.02525         4.26033        -0.87230
C         25.86557         6.33463        -1.53502
C         25.95137         7.78418        -2.00969
C         27.06943         5.65305        -1.19545
C         27.13660         8.52464        -1.43317
C         25.87836        10.68479        -1.52254
C         25.86973        12.06848        -1.46369
C         27.11093         9.93586        -1.31488
C         27.06421        12.81688        -1.16182
C         25.80949        14.94928        -1.19797
C         25.79153        16.36488        -1.00028
C         27.04505        14.21000        -1.10140
C         27.02665        17.09307        -0.75679
C         25.74393        19.20631        -0.67410
C         27.00461        18.55314        -0.63941
C         28.27760         1.47852        -0.73128
C         28.25694         3.68081        -0.45916
C         29.53703         1.07561        -1.10360
C         29.48899         4.25388        -0.70806
C         28.31084         6.36242        -1.11318
C         28.31848         7.80234        -1.15901
C         29.52709         5.66589        -0.89839
C         29.53108         8.49033        -0.85800
C         28.30064        10.63413        -0.97960
C         28.29691        12.08371        -0.88456
C         29.50731         9.90847        -0.74986
C         29.42771        12.76020        -0.47382
C         28.35412        14.95813        -0.98606
C         28.21121        16.41522        -0.61362
C         29.37366        14.22738        -0.10681
C         29.43768        17.16230        -0.27599
C         28.19807        19.28127        -0.55600
C         29.47322        18.63878        -0.47162
C         30.75879         1.91805        -0.84860
C         30.74028         3.45546        -0.73704
C         31.96903         1.27398        -0.32651
C         31.95899         4.16853        -0.29212
C         30.76326         6.35065        -0.67174
C         30.75493         7.77463        -0.64516
C         31.94511         5.62595        -0.30198
C         31.96741         8.48505        -0.41244
C         30.71170        10.58756        -0.39616
C         30.64233        12.02938        -0.10483
C         31.92193         9.90357        -0.28645
C         31.91592        12.80248         0.09883
C         30.72360        14.92386        -0.18680
C         30.71341        16.40053        -0.13347
C         31.91729        14.26955        -0.06306
C         32.00188        17.09633        -0.41988
C         30.67414        19.31555        -0.38518
C         31.98109        18.62341        -0.45503
C         33.11722         1.99022        -0.01804
C         33.11370         3.44555        -0.05420
C         34.28134         1.33044         0.51956
C         34.33999         4.13697         0.40201
C         33.12713         6.34741        -0.03318
C         33.18910         7.76270        -0.18761
C         34.33401         5.63613         0.40861
C         34.43158         8.44668        -0.01452
C         33.19612        10.65438        -0.26441
C         33.20908        12.10322         0.02089
C         34.49447         9.90095        -0.26832
C         34.37226        12.79058         0.25905
C         33.19845        14.96296         0.04908
C         33.23939        16.38025        -0.07270
C         34.39043        14.24076         0.28011
C         34.44122        17.08945         0.08054
C         33.23590        19.26991        -0.09347
C         34.42749        18.54865         0.07390
C         35.49146         1.98965         0.74085
C         35.64017         3.38444         0.14261
C         36.55661         1.37602         1.42242
C         36.95456         4.15712         0.53725
C         35.61639         6.35187         0.50721
C         35.60475         7.77412         0.40129
C         36.78101         5.64024         0.83833
C         36.77011         8.52113         0.80562
C         35.79587        10.68313        -0.05212
C         35.58469        12.00640         0.71120
C         36.85993         9.90210         0.68297
C         36.88217        12.78597         0.68239
C         35.64101        14.93671         0.41159
C         35.65158        16.37236         0.34352
C         36.86513        14.22583         0.58558
C         36.86704        17.08310         0.54232
C         35.64934        19.22536         0.32438
C         36.85681        18.52807         0.53500
C         37.70026         2.09907         1.84847
C         37.82884         3.48662         1.57307
C         38.72628         1.44751         2.60855
C         38.93925         4.21036         2.06129
C         37.90102         6.32962         1.36091
C         37.81803         7.78570         1.51785
C         39.02992         5.64239         1.88117
C         39.12509         8.55389         1.85109
C         38.04038        10.63114         1.02112
C         38.05750        12.07394         0.82544
C         39.20757         9.96122         1.44420
C         39.38482        12.75662         0.64598
C         38.10058        14.94061         0.73249
C         38.08628        16.38098         0.75540
C         39.32353        14.24651         0.90439
C         39.29662        17.09917         0.96434
C         38.06831        19.22339         0.74878
C         39.27851        18.53634         0.96158
C         39.83782         2.13292         3.03254
C         39.97798         3.52904         2.77128
C         41.13382         4.24952         3.16186
C         40.21566         6.34139         2.28075
C         40.34399         7.76303         2.04786
C         41.26372         5.60075         2.88845
C         41.55896         8.45772         2.02645
C         40.47773        10.62451         1.52692
C         40.54315        12.05072         1.31458
C         41.61728         9.84429         1.82477
C         41.67279        12.80636         1.61648
C         40.52877        14.94647         1.17371
C         40.52778        16.40480         1.18656
C         41.69122        14.20331         1.48693
C         41.69634        17.15350         1.39326
C         40.49338        19.24708         1.17835
C         41.67405        18.55940         1.38877
O         38.09394         8.28146         2.86011
O         12.44123         8.11630        -2.30088
O         30.98637         2.78421        -2.03112
O          5.82065         5.90415         2.88821
O          3.96221         7.00333         0.05559
O          5.33550        18.18101         2.61816
O          9.53367        11.29798         2.69721
O         16.17251         2.79737         0.64728
O         30.00459        16.85636         1.07577
O         33.90411        10.31332        -1.55141
O         23.49600         6.94953        -3.29711
O         15.25002        13.49304         0.43117
O         32.06752        17.78209        -1.69890
O         31.11720        12.36351         1.28063
O         18.63574        10.79783        -3.79037
O          4.26194         3.45126         2.68108
O         13.53499        16.57492        -2.41649
O         11.02776        10.62871        -1.43722
O         17.46199         3.84992        -2.52129
O         20.13016         5.94260        -3.15237
O         34.15867         4.81720         1.66766
O         28.24525         2.48930         0.25591
O          7.14583        12.47871         3.05493
O         11.82581        15.87266         1.68000
O         20.33622         8.12063        -0.37725
O          2.89003        12.86700        -0.69607
H          2.91616        11.93743        -1.01024
O         37.81933         4.17313        -0.66120
H         38.46716         3.44105        -0.58227
O         11.02222         9.27847         1.94453
H         10.92747         9.89564         2.70702
O          9.62600        17.88687        -1.63554
H         10.50732        17.66439        -2.00787
O          7.72334         9.66773         3.33310
H          8.00005        10.54675         3.69583
O         15.87674        19.29478        -3.26017
H         15.92698        18.36594        -3.59187
O         20.92380        12.12611        -3.70543
H         20.07939        11.65048        -3.99380
O         35.29993        11.63160         2.08834
H         35.19630        12.45060         2.61626
O          9.04616         8.98162        -1.13081
H          9.69648         9.44304        -1.71754
O         36.34599        10.99766        -1.35088
H         35.59371        10.97183        -1.98984
O         28.92803        14.27259         1.26755
H         29.59215        13.77574         1.79863
O         16.59458         9.51257        -3.53720
H         17.29063         9.92964        -4.14057
O         39.67088        12.62548        -0.80930
H         38.82301        12.75504        -1.28714
O          6.79583         2.90662         2.74211
H          5.97949         2.81556         3.28648
O         13.35761         3.41495        -2.51401
H         13.25601         4.33706        -2.83572
O         20.85671        20.48774        -1.35160
H         20.87660        20.31044        -2.31428
O         15.92644        16.31852        -3.37889
H         15.01177        16.08219        -3.66127
O          4.18224        15.25956        -0.42641
H          3.82820        14.45563        -0.88108
O         17.50950         5.73778         0.61343
H         17.58656         6.67977         0.87551
O          8.02180        17.61833         2.92450
H          7.20714        18.04583         3.27896
O         35.63319         3.18940        -1.29156
H         36.49797         3.52532        -1.63459
O          5.06697         9.98858         3.38178
H          5.95236         9.69435         3.72283
O         24.84269        12.96424        -3.39291
H         23.96297        13.14986        -3.78806
O         26.18798         7.70410        -3.45481
H         25.35187         7.35772        -3.85212
O         28.94961        14.95933        -2.32546
H         28.26670        15.25413        -2.96452
H          0.33401         1.62786         0.35303
H          0.32114         4.02636         0.89819
H          2.44941         0.36085         0.10577
H          0.37060         5.96182         1.46446
H          0.46933         8.36229         1.54312
H          0.49964        10.25820         1.42410
H          0.52998        12.62675         0.94953
H          0.64719        14.46851         1.63409
H          0.64733        16.92183         1.77990
H          1.71667        19.00621         1.54078
H          4.90921         0.36812         0.03002
H          3.53407        20.49327         1.06467
H          7.29857         0.33562        -0.19522
H          6.13398        19.98674        -0.11691
H          9.76837         0.26542        -0.26546
H          8.39494        20.05114        -0.43291
H         12.21153         0.24218        -0.35270
H         11.02600        20.29226        -0.38600
H         14.64010         0.21513        -0.42499
H         13.53329        20.30895        -0.92131
H         17.19072         0.18013        -1.01485
H         15.93775        20.28364        -1.43713
H         19.70356         0.21296        -1.13630
H         18.36166        20.24522        -1.05752
H         22.13463         0.26216        -1.20595
H         20.73244        19.48228         0.43189
H         24.55251         0.26248        -1.25195
H         23.26000        20.24350        -0.59884
H         26.79260         0.13611        -1.60141
H         25.70663        20.30058        -0.56516
H         29.66038         0.26098        -1.83310
H         28.15547        20.38085        -0.57098
H         31.94797         0.18858        -0.14484
H         30.67634        20.41582        -0.34719
H         34.18456         0.27613         0.82381
H         33.23976        20.35507         0.08995
H         36.46383         0.31879         1.71564
H         35.65939        20.32545         0.33150
H         38.61785         0.37534         2.82684
H         38.06481        20.32355         0.74865
H         40.63224         1.61313         3.58741
H         41.94332         3.71685         3.68165
H         42.17817         6.12324         3.20242
H         42.50204         7.91321         2.17805
H         42.60578        10.32329         1.84587
H         42.57297        12.31499         2.01334
H         42.62480        14.72749         1.73108
H         42.65807        16.64892         1.55604
H         40.47952        20.34629         1.17509
H         42.61010        19.11132         1.55283
