         234
 CSIRO Nanostructure Databank - Neutral Graphene Oxide Data Set
C          1.30084         2.21880        -0.25642
C          1.33955         3.60866        -0.55968
C          2.45080         1.47031        -0.23345
C          2.54738         4.26075        -0.74892
C          1.37890         6.46585        -1.38894
C          1.29717         7.77825        -1.11927
C          2.66092         5.68047        -1.28085
C          2.41888         8.52176        -0.49259
C          1.27302        10.87068        -0.68714
C          1.34329        12.23967        -0.71653
C          2.39827        10.01909        -0.26494
C          2.51240        12.98849        -0.38082
C          1.54403        15.17944        -1.10099
C          1.66689        16.53903        -1.33142
C          2.61393        14.40401        -0.56219
C          2.88623        17.20655        -1.06865
C          3.06469        18.64149        -1.28606
C          3.72983         2.09478        -0.45609
C          3.76789         3.53024        -0.62352
C          4.90409         1.37062        -0.49791
C          5.02501         4.20014        -0.60368
C          3.77534         6.44788        -0.61084
C          3.73050         7.80741        -0.44674
C          4.97789         5.64938        -0.15234
C          4.95289         8.59246        -0.29027
C          3.69976        10.72699         0.04031
C          3.70874        12.24748         0.06324
C          4.96367         9.96347        -0.16845
C          4.98513        12.98889         0.17853
C          3.83723        15.09055        -0.23939
C          3.96884        16.45258        -0.56875
C          4.99609        14.36239         0.25718
C          5.24723        17.17846        -0.36060
C          4.09021        19.31722        -0.71681
C          5.01052        18.56163         0.22119
C          6.23357         1.96805        -0.87779
C          6.24090         3.50918        -0.72053
C          7.33063         1.29747        -0.04146
C          7.47272         4.26155        -0.65528
C          6.25899         6.38354        -0.37399
C          6.21691         7.83879        -0.51132
C          7.45970         5.70223        -0.45232
C          7.53432         8.55997        -0.37692
C          6.22487        10.75636        -0.29732
C          6.24134        12.22265         0.03108
C          7.54682        10.04182        -0.20779
C          7.48776        12.86267         0.50906
C          6.25640        15.09989         0.61555
C          6.49148        16.43815        -0.05627
C          7.47726        14.24018         0.76544
C          7.26069        16.97344         1.13528
C          6.29235        19.21869         0.63494
C          7.32149        18.48313         1.17707
C          8.64897         1.56947        -0.31095
C          8.73807         3.68695        -0.83708
C          9.89448         1.24493         0.29333
C          9.96049         4.26516        -0.36778
C          8.72767         6.40034        -0.29824
C          8.72867         7.78270        -0.03820
C          9.94624         5.67390        -0.15084
C          9.88866         8.43670         0.46135
C          8.73618        10.69223         0.41049
C          8.65713        12.12394         0.79700
C          9.68712         9.76812         1.16262
C          9.81510        12.76481         1.26776
C          8.64766        14.87117         1.21702
C          8.56582        16.30832         1.50065
C          9.84634        14.16438         1.44821
C          9.85768        17.04563         1.69953
C          8.59583        19.14533         1.36217
C          9.83207        18.50503         1.46719
C         11.08286         2.03125         0.13242
C         11.11691         3.48433        -0.07820
C         12.30952         1.38214         0.37556
C         12.32945         4.19456         0.23681
C         11.14747         6.35203         0.21286
C         11.09675         7.75129         0.50544
C         12.33728         5.60375         0.38162
C         12.36692         8.54727         0.61173
C         10.96902        10.47848         1.61097
C         11.00935        11.98201         1.64653
C         12.26474         9.71357         1.56734
C         12.31456        12.68687         1.74938
C         11.11001        14.87385         1.64927
C         11.12247        16.28853         1.58397
C         12.34465        14.15789         1.63517
C         12.32943        17.00246         1.41298
C         11.07428        19.16202         1.31163
C         12.29885        18.45586         1.25919
C         13.56156         2.05446         0.37891
C         13.57032         3.48453         0.39486
C         14.78045         1.34306         0.38991
C         14.81450         4.18395         0.49431
C         13.53799         6.25744         1.03225
C         13.60565         7.74756         0.88594
C         14.84224         5.57777         0.70726
C         14.80697         8.43369         1.07510
C         13.54580        10.44958         1.83623
C         13.38195        11.89992         2.11889
C         14.82675         9.87103         1.30245
C         15.14251        12.85789         1.39166
C         13.54483        14.88128         1.36909
C         13.54424        16.29267         1.26191
C         14.67478        14.10743         0.72665
C         14.83738        17.05135         1.13913
C         13.49058        19.13375         0.94076
C         14.76641        18.51958         0.83431
C         16.03098         2.00583         0.26716
C         16.05266         3.46316         0.33133
C         17.21873         1.26612         0.16574
C         17.25844         4.16851         0.32277
C         16.06355         6.30911         0.77009
C         16.05064         7.71077         0.96779
C         17.31598         5.59969         0.53684
C         17.30373         8.47973         1.02795
C         16.00973        10.58706         0.98669
C         15.97766        12.02635         0.72730
C         17.24597         9.93121         0.75455
C         16.85010        12.60633        -0.37097
C         15.94268        14.82988         0.38984
C         16.08444        16.23629         0.79444
C         16.93298        14.13981        -0.23887
C         17.36040        16.83223         0.40003
C         15.79772        19.30444         0.28438
C         17.16952        18.93039         0.11547
C         18.46834         1.90328        -0.19796
C         18.47904         3.45830        -0.07570
C         19.77871         1.24270        -0.16185
C         19.80331         4.08496         0.12870
C         18.51910         6.29681         0.41433
C         18.60382         7.72498         0.75932
C         19.81254         5.58832         0.26442
C         19.83000         8.51780         0.39859
C         18.37887        10.67901         0.26320
C         18.22391        11.95204        -0.28756
C         19.72371        10.03611         0.21033
C         19.33256        12.63237        -0.98035
C         17.95237        14.91259        -1.06688
C         18.23313        16.29072        -0.50110
C         19.23004        14.13099        -1.34010
C         19.32244        17.06739        -1.05761
C         18.05108        19.27267        -0.89469
C         19.23595        18.49410        -1.20941
C         20.94498         1.94774        -0.37106
C         20.99967         3.36995        -0.34374
C         22.18596         4.12685        -0.54033
C         20.98142         6.29801        -0.33688
C         20.96312         7.82958        -0.30551
C         22.19898         5.50567        -0.55380
C         22.17082         8.64399        -0.50043
C         20.84144        10.71618        -0.47598
C         20.68524        12.03344        -0.95896
C         22.08550        10.00540        -0.57656
C         21.75640        12.79961        -1.46725
C         20.46972        14.89316        -1.55163
C         20.43398        16.35343        -1.60650
C         21.65584        14.17297        -1.71992
C         21.47980        17.07413        -2.21224
C         20.28739        19.15542        -1.88998
C         21.40129        18.46323        -2.34882
O          6.97859         8.25451        -1.70438
O         10.75946        11.16152         2.87882
O         12.91442         9.54105         2.84083
O         14.55102        12.50574         2.60447
O         17.68742        18.01491         1.06668
O          8.64111        10.57062        -1.04025
O          6.31643        16.96214        -1.38168
O          9.02909        16.64373         2.84690
O          2.04587         9.07403         0.81970
O         18.35869         2.81813        -1.36256
O         20.06147         4.73579         1.42781
O          6.23972        11.73425        -1.38556
O         18.96523        13.09194        -2.35520
O         18.17485         8.02647         2.12600
O          6.26343        16.00879         1.91376
O          8.84314         2.44187        -1.43630
O          3.57820        11.42898         1.31900
O         20.21410         9.41400         1.46074
O         20.53896         7.09542        -1.50706
O         15.74066        16.56388         2.18594
O          3.13285         5.49653        -2.66227
H          3.26689         6.38331        -3.05870
O          4.80104         5.56106         1.31389
H          5.58066         5.09101         1.67927
O         12.53452         9.18139        -0.70555
H         12.53588         8.47818        -1.38896
O         14.06136        13.69788        -0.54623
H         14.74433        13.25780        -1.11192
O          6.42300         1.65524        -2.28697
H          7.34992         1.90933        -2.50544
O         13.31449         6.02703         2.48669
H         13.91464         6.63084         2.97631
O         17.30799        15.13053        -2.35815
H         17.59432        14.40199        -2.95369
O         16.28268        12.29384        -1.67681
H         16.98268        12.49954        -2.34096
O          8.95914         9.40372         2.37075
H          9.32268         9.95884         3.10299
O          4.24563        18.30636         1.44318
H          4.21524        19.13663         1.96193
H          0.32645         1.73827        -0.09119
H          0.39114         4.15616        -0.65242
H          2.41115         0.38436        -0.06649
H          0.51117         5.95361        -1.83208
H          0.34266         8.30709        -1.26116
H          0.31626        10.38187        -0.91907
H          0.43977        12.78691        -1.02040
H          0.59016        14.69137        -1.34262
H          0.81243        17.10475        -1.72997
H          2.31974        19.16940        -1.90125
H          4.86436         0.27757        -0.37043
H          4.20355        20.40282        -0.86026
H          7.05081         0.70796         0.84239
H          6.40151        20.31021         0.53223
H          9.99589         0.28739         0.82680
H          8.59527        20.23855         1.22428
H         12.30623         0.28988         0.51413
H         11.08705        20.25090         1.15148
H         14.75904         0.24305         0.38856
H         13.42876        20.21538         0.74397
H         17.20235         0.18292         0.35608
H         15.49576        20.28107        -0.12852
H         19.81137         0.15099        -0.03591
H         17.81808        20.12512        -1.55106
H         21.89051         1.39652        -0.48804
H         23.11814         3.58674        -0.76434
H         23.12530         6.03281        -0.82115
H         23.12618         8.14385        -0.71104
H         22.99726        10.56578        -0.82635
H         22.75025        12.34115        -1.55542
H         22.58285        14.70866        -1.96693
H         22.34864        16.54736        -2.62876
H         20.22358        20.24320        -2.03587
H         22.21649        19.00608        -2.84692
