         490
 CSIRO Nanostructure Databank - Neutral Graphene Oxide Data Set
C         37.35768        50.18918         0.14141
C         36.17590        50.90704         0.18018
C         37.40616        52.96391        -0.16962
C         36.19674        52.30230         0.01108
C         39.87978        48.66056        -0.11407
C         39.82139        50.09080        -0.16923
C         38.60871        50.83624        -0.07222
C         39.90187        52.97889        -0.31433
C         38.63131        52.26639        -0.20209
C         39.96115        54.39596        -0.27687
C         42.35561        48.67882         0.24043
C         41.05264        47.96713        -0.01374
C         42.36531        50.03656        -0.42823
C         41.06888        50.79840        -0.49429
C         42.37199        52.93929        -0.41833
C         41.11661        52.26797        -0.42821
C         42.40180        54.36281        -0.34471
C         41.16949        55.06226        -0.30187
C         44.83729        45.80597        -0.11594
C         43.64324        46.51326         0.04695
C         44.83589        48.60286        -0.31667
C         43.62399        47.90189        -0.06316
C         44.84234        50.05402        -0.38574
C         43.63604        50.78861        -0.37230
C         44.86469        52.90088        -0.40139
C         43.61818        52.19992        -0.42047
C         44.85938        54.33602        -0.28280
C         43.66965        55.05348        -0.24911
C         44.81936        57.12344         0.44001
C         43.71754        56.50014        -0.03128
C         47.43665        44.47799         0.33771
C         47.25815        45.62175        -0.64843
C         46.03886        46.47047        -0.36036
C         47.29747        48.59763        -0.75044
C         46.05533        47.88215        -0.48510
C         47.31196        50.00691        -0.68945
C         46.07867        50.75260        -0.50740
C         47.37263        52.92272        -0.58552
C         46.07505        52.16110        -0.47784
C         47.28194        54.15577         0.32854
C         46.16938        55.09915        -0.17673
C         47.35889        56.95880         1.12045
C         46.05017        56.33919         0.69519
C         47.47303        58.40833         1.33578
C         49.87998        44.84542         0.81069
C         48.59075        44.06456         0.87574
C         49.84542        45.89424        -0.28855
C         48.54942        46.41230        -0.85206
C         49.72254        48.60283        -1.19208
C         48.51933        47.89807        -1.03978
C         49.79204        49.99861        -0.89500
C         48.56698        50.70257        -0.69711
C         49.81806        52.70235        -0.06728
C         48.60586        52.08423        -0.37403
C         49.80786        54.03027         0.58240
C         48.59449        54.87932         0.52658
C         49.88382        56.90733         1.09696
C         48.62629        56.20490         0.88878
C         49.92820        58.29312         1.21712
C         48.67554        59.02608         1.32511
C         52.39663        41.92549         0.86186
C         51.17493        42.65397         0.75777
C         52.45873        44.80109         0.74934
C         51.15195        44.01976         0.70443
C         52.38002        46.09045        -0.09525
C         51.08422        46.73660        -0.45634
C         52.25136        48.68006        -1.72574
C         50.97136        47.80816        -1.55825
C         52.29776        50.01160        -1.00532
C         51.03902        50.69106        -0.73183
C         52.32007        52.73158        -0.04969
C         51.05601        52.02532        -0.26614
C         52.36995        53.97097         0.52996
C         51.11715        54.64299         0.96344
C         52.43768        56.85955         1.11731
C         51.13453        56.12406         1.21814
C         52.42645        58.32936         0.99376
C         51.19850        59.01907         1.18114
C         52.44872        61.11147         1.10684
C         51.24832        60.43077         1.22467
C         54.95025        40.54339         1.47440
C         54.87641        41.84823         0.97478
C         53.64092        42.55033         0.76700
C         54.83950        44.54061        -0.06940
C         53.68198        43.96873         0.41768
C         54.88402        45.88064        -0.60517
C         53.57808        46.50276        -0.87867
C         54.80678        48.57220        -1.56310
C         53.52717        47.85966        -1.54145
C         54.74693        50.04402        -1.46330
C         53.49526        50.67550        -0.95771
C         54.87043        52.69798        -0.18859
C         53.55036        52.17475        -0.73200
C         54.91299        53.96175         0.43010
C         53.67082        54.60193         1.01346
C         54.85947        56.79812         0.78717
C         53.69145        56.11719         0.85274
C         54.90504        58.27347         0.44525
C         53.64352        59.01915         0.83094
C         54.94208        61.14881         0.83527
C         53.66841        60.42936         0.89363
C         54.98219        62.54534         0.85160
C         57.40820        40.43169         1.25409
C         56.16446        39.87676         1.66326
C         57.40816        41.80144         0.74462
C         56.15381        42.64210         0.85076
C         57.34542        44.45196        -0.45283
C         56.05727        43.66829        -0.27713
C         57.33378        45.77450        -0.98344
C         56.04673        46.47240        -1.10510
C         57.27165        48.59927        -1.56099
C         56.00696        47.87323        -1.50844
C         57.29475        49.95084        -1.31344
C         56.06084        50.76795        -1.28256
C         57.31565        52.73562        -0.37573
C         56.08058        52.09212        -0.59668
C         57.35267        53.99277         0.24665
C         56.14438        54.62203         0.61683
C         57.40169        56.83554         1.08890
C         56.12737        56.05774         1.00826
C         57.40049        58.31770         0.93376
C         56.18631        58.99892         0.83015
C         57.41750        61.13549         0.99585
C         56.18176        60.42501         0.86403
C         57.41770        62.56905         0.99887
C         56.19293        63.24022         0.91486
C         59.86627        37.59677         1.55352
C         58.74301        38.34514         1.73853
C         59.77219        40.26016         0.52424
C         58.59112        39.66449         1.20010
C         59.87819        41.75893         0.65385
C         58.56078        42.43011         0.34746
C         59.78028        44.37303        -0.62499
C         58.55416        43.77624        -0.21136
C         59.74459        45.60173        -1.34427
C         58.54050        46.37692        -1.41248
C         59.77224        48.59625        -1.86277
C         58.48361        47.79263        -2.02303
C         59.74533        50.04802        -1.63311
C         58.57333        50.65421        -0.91231
C         59.87228        52.81106        -0.69163
C         58.53131        52.18621        -1.09603
C         59.89512        54.04763        -0.06468
C         58.66057        54.64966         0.47735
C         59.85836        56.94418         0.42494
C         58.69243        56.09769         0.89004
C         59.92617        58.25152         1.23670
C         58.63324        59.02743         1.06077
C         59.92164        61.14190         1.49579
C         58.64427        60.41767         1.10784
C         59.90971        62.61532         1.15232
C         58.68118        63.29487         1.01597
C         59.86993        65.41496         0.83240
C         58.69471        64.70523         0.82716
C         62.39457        36.05717         1.24923
C         62.31552        37.42433         1.04279
C         60.96906        37.94771         0.57145
C         62.32254        40.09250        -0.08796
C         60.98278        39.43710         0.23632
C         62.26533        41.60656        -0.06613
C         61.07440        42.33338        -0.05065
C         62.26449        44.31146        -0.86837
C         61.04189        43.68500        -0.48458
C         62.24837        45.58373        -1.55520
C         60.98673        45.99254        -1.95871
C         62.26956        48.66542        -2.06942
C         60.95970        48.10672        -2.32908
C         62.29161        50.01495        -1.75636
C         61.05305        50.79674        -1.62214
C         62.38116        52.71339        -0.71923
C         61.09794        52.13380        -0.99484
C         62.42331        54.10283        -0.29543
C         61.19891        54.69020         0.35923
C         62.32846        56.94701         0.22649
C         61.16944        56.20639         0.32599
C         62.34848        58.34897         0.53540
C         61.17621        59.04454         0.88619
C         62.40067        61.18745         0.89655
C         61.18540        60.44218         1.04159
C         62.39588        62.62080         1.02902
C         61.13344        63.32698         1.09796
C         62.33718        65.49806         1.05961
C         61.12435        64.76008         0.99104
C         62.36863        66.90868         1.02545
C         64.80422        36.11563         1.63610
C         63.62874        35.40500         1.47995
C         64.72830        37.62061         1.79134
C         63.49834        38.23505         1.13531
C         64.72508        40.32544         0.60906
C         63.52343        39.54145         0.65889
C         64.73531        41.59780         0.03712
C         63.49432        42.27644        -0.29749
C         64.75104        44.27665        -1.15740
C         63.48144        43.62525        -0.69205
C         64.65455        45.78446        -1.27020
C         63.48515        46.38419        -1.71208
C         64.71736        48.52354        -2.13441
C         63.48819        47.85045        -2.01648
C         64.78601        50.02643        -2.20567
C         63.54114        50.76977        -1.78801
C         64.86237        52.64055        -0.68278
C         63.57595        52.05436        -1.06456
C         64.86830        54.15598        -0.47768
C         63.57338        54.84150        -0.39974
C         64.86027        57.01856        -0.17863
C         63.53617        56.34656        -0.45738
C         64.88183        58.36752         0.19035
C         63.67103        59.01174         0.82531
C         64.85237        61.23083         0.65429
C         63.63506        60.51558         0.70687
C         64.84530        62.66117         0.80349
C         63.61427        63.32749         1.01609
C         64.86156        65.54110         1.04359
C         63.61328        64.77838         1.41861
C         64.82504        66.95277         1.07904
C         63.55388        67.61527         1.11125
C         67.34265        33.39383         2.09222
C         66.14184        34.04503         1.95760
C         67.28800        36.20532         1.78203
C         66.07553        35.45934         1.80358
C         67.24420        37.64526         1.52063
C         66.02649        38.30939         1.42370
C         67.24285        40.41237         0.74813
C         65.97287        39.81434         1.30427
C         67.22186        41.71895         0.26738
C         65.95700        42.38505        -0.02589
C         67.19225        44.47775        -0.38034
C         65.94042        43.70562        -0.42228
C         67.18270        45.94232        -0.70694
C         65.84319        46.66551        -0.90535
C         67.18359        48.20562        -2.34226
C         65.94158        47.78958        -1.89116
C         67.23345        50.31007        -2.43940
C         66.06071        50.75478        -1.92686
C         67.32836        52.82392        -1.34037
C         66.17040        51.90322        -0.95248
C         67.26384        54.24059        -1.15444
C         66.09768        54.92003        -0.77693
C         67.26895        57.09677        -0.60392
C         66.06238        56.35042        -0.57042
C         67.29291        58.43513        -0.18085
C         66.10376        59.09872         0.20895
C         67.29761        61.27113         0.43801
C         66.10436        60.53098         0.47782
C         67.27814        62.69246         0.53966
C         66.08132        63.39763         0.71787
C         67.27411        65.61129         0.65876
C         66.08280        64.85927         0.80726
C         67.28591        67.01994         0.86198
C         66.05144        67.70268         1.04723
C         67.25090        69.80937         1.31268
C         66.06849        69.11385         1.23596
C         69.93073        32.03035         2.10702
C         69.81186        33.43208         2.26953
C         68.57249        34.11216         2.12165
C         69.76616        36.27999         1.87075
C         68.53047        35.54420         1.96198
C         69.74511        37.66017         1.48810
C         68.49826        38.34658         1.32460
C         69.69847        40.38960         0.59761
C         68.48654        39.72171         0.91543
C         69.68880        41.68234         0.04131
C         68.44746        42.37339        -0.09605
C         69.66575        44.41300        -0.73503
C         68.45607        43.73068        -0.46339
C         69.65800        45.80773        -1.03422
C         68.46445        46.52881        -1.18241
C         69.68293        48.56522        -2.03213
C         68.45472        47.78835        -1.84580
C         69.69188        50.02853        -2.17621
C         68.54428        50.81600        -2.09829
C         69.78282        52.93505        -1.66437
C         68.54013        52.21968        -1.71792
C         69.78173        54.31376        -1.55511
C         68.48116        55.01452        -1.48968
C         69.79737        57.17243        -0.98794
C         68.49212        56.48944        -1.15775
C         69.81458        58.49090        -0.60939
C         68.59620        59.11580        -0.05398
C         69.85496        61.34310         0.09925
C         68.59804        60.57613         0.29602
C         69.83833        62.72584         0.33677
C         68.53344        63.43450         0.27855
C         69.86861        65.66997         0.27617
C         68.52366        64.93039         0.25318
C         69.78244        67.08776         0.81133
C         68.52818        67.75889         0.92405
C         69.75016        69.87736         1.36137
C         68.50960        69.15338         1.19315
C         69.77244        71.27838         1.58717
C         72.35610        32.15076         2.34510
C         71.15737        31.39526         2.14501
C         72.31246        33.49244         2.55542
C         71.01108        34.23275         2.71663
C         72.19216        36.35332         2.01211
C         71.00677        35.63881         2.14543
C         72.17937        37.69508         1.59916
C         70.98583        38.35001         1.33072
C         72.11947        40.24411         0.06131
C         71.02761        39.82555         1.02053
C         72.07323        41.44895        -0.54629
C         70.89900        42.30549        -0.44322
C         72.01135        44.29559        -1.50821
C         70.88356        43.64500        -0.85336
C         72.03197        45.62362        -1.74812
C         70.97806        46.52506        -1.15296
C         72.14283        48.63812        -1.78119
C         70.89627        47.91726        -1.75536
C         72.22090        49.96089        -2.05156
C         71.00597        50.79030        -2.35227
C         72.25490        52.97624        -1.90866
C         71.05898        52.12553        -1.55983
C         72.23096        54.32323        -1.81755
C         71.01402        55.07028        -1.52793
C         72.26711        57.14756        -0.96254
C         71.02765        56.44215        -1.24861
C         72.29526        58.46629        -0.66527
C         71.06160        59.31390        -0.83171
C         72.25997        61.42049        -0.06884
C         71.07549        60.67730        -0.15684
C         72.24929        62.75776         0.34272
C         71.04044        63.44144         0.51824
C         72.22573        65.63382         1.08669
C         70.92907        64.86166         1.05806
C         72.22314        66.98045         1.06591
C         70.98245        67.75332         1.05630
C         72.19251        69.88620         1.55825
C         70.98768        69.16856         1.33476
C         72.18198        71.25084         1.78101
C         70.96242        71.95362         1.79009
O         51.80686        47.19704         0.71193
O         68.81392        59.56017         1.35353
O         68.38026        64.18404        -1.01233
O         55.35685        50.78253        -2.59250
O         50.34015        53.92091         1.97349
O         51.88823        56.44577         2.44536
O         41.70583        50.16990        -1.71032
O         56.70989        56.40655         2.31289
O         53.42882        46.63735        -2.33669
O         49.42721        45.51016        -1.62242
O         58.90188        55.09249         1.89562
O         60.01041        39.74427        -0.83791
O         46.45570        56.25451         2.09049
O         60.18564        50.76981        -2.84119
O         60.92333        46.89506        -3.02629
O         64.02004        50.75108        -3.22205
O         68.28961        56.01954        -2.54379
O         64.94111        53.21105         0.66674
O         67.20848        49.21508        -3.32180
O         67.27946        45.50721         0.70323
O         52.25960        49.08107        -3.13255
H         53.13962        49.46207        -3.34143
O         71.19263        51.73615        -0.16177
H         71.22674        52.55196         0.38003
O         46.94677        44.97767        -1.91675
H         47.80964        44.71270        -2.31187
O         63.27972        56.66278        -1.88399
H         64.07708        56.40706        -2.39630
O         64.54757        37.84352         3.23780
H         65.30194        37.41560         3.69555
O         66.57623        51.29686         0.31187
H         66.27279        51.90762         1.02465
O         46.88548        53.62899         1.61378
H         46.80870        54.39624         2.23256
O         46.49580        55.66914        -1.46672
H         46.71670        54.92757        -2.08047
O         62.59171        39.76262        -1.48679
H         61.73509        39.85541        -1.96194
O         71.35104        40.47704         2.30316
H         71.36856        41.44456         2.14025
O         70.43013        64.73999         2.42015
H         71.12481        64.31393         2.96404
O         63.86748        58.77191         2.27772
H         64.71134        59.20390         2.53247
O         60.12564        41.99848         2.08054
H         60.15951        42.96832         2.22074
O         71.42088        46.76482         0.23592
H         70.71062        47.27105         0.68543
O         52.65669        45.22033         2.12762
H         52.08399        46.01566         2.25415
O         65.87111        40.32869         2.68224
H         66.65763        40.01117         3.17423
O         58.75693        50.43270         0.51233
H         58.70205        49.47149         0.69466
O         58.25773        47.60546        -3.44739
H         59.08678        47.22484        -3.81829
O         47.51036        53.34923        -1.98537
H         47.53191        52.54039        -2.53998
O         59.51303        57.30620        -0.94702
H         60.32150        57.64098        -1.39134
O         60.04800        57.90584         2.63161
H         60.03544        58.74462         3.14468
O         56.29550        43.40769         2.08624
H         56.26338        42.77716         2.83592
O         63.62272        64.74594         2.90777
H         63.60367        65.67975         3.20974
O         49.95245        45.60284         2.05648
H         50.05551        44.96130         2.79060
O         60.65101        37.21781        -0.64606
H         60.01775        37.78480        -1.14460
O         55.86314        42.92594        -1.51139
H         55.75635        43.57124        -2.24158
O         59.95062        61.05183         2.97163
H         60.72632        61.56881         3.27945
O         53.48373        52.74062        -2.08904
H         54.21283        52.31341        -2.60569
O         64.96129        43.82582        -2.55709
H         64.13894        44.02780        -3.05340
O         54.91957        58.28307        -1.03123
H         54.97321        59.21916        -1.32008
O         71.05135        51.17007        -3.75886
H         70.96343        50.35581        -4.29703
O         53.70435        54.32058         2.43917
H         53.02067        54.89669         2.86119
O         61.40985        54.34173         1.76946
H         60.59281        54.61959         2.25761
O         50.74535        47.14454        -2.80450
H         51.21700        47.66071        -3.49907
O         58.28011        52.51605        -2.47665
H         58.97142        52.06594        -3.02355
O         42.40463        48.97734         1.67832
H         42.48507        48.12705         2.15938
O         70.83821        34.41989         4.17714
H         70.81867        33.52512         4.57867
O         65.48347        47.26680         0.37492
H         65.89662        46.70217         1.07156
O         71.00798        59.66146        -2.26933
H         71.84295        60.12499        -2.49257
O         70.33837        65.79908        -1.08264
H         69.81400        65.16274        -1.62645
H         37.32348        49.09875         0.26721
H         35.22071        50.38721         0.33703
H         37.38968        54.05509        -0.29106
H         35.25786        52.87242         0.03028
H         38.94104        48.08865        -0.15843
H         39.03927        54.98816        -0.21149
H         41.01453        46.86883         0.01633
H         41.15905        56.15913        -0.26380
H         44.81554        44.70974        -0.06384
H         42.72072        45.95384         0.25372
H         44.79129        58.19682         0.67754
H         42.80732        57.09276        -0.19645
H         46.54128        43.86049         0.51161
H         46.55481        58.99022         1.49621
H         48.57847        43.18099         1.53491
H         48.70421        60.11437         1.46528
H         52.33486        40.84175         1.02903
H         50.23312        42.08517         0.77543
H         52.43354        62.20647         1.18254
H         50.33423        61.01902         1.37455
H         54.02442        39.99644         1.70630
H         54.05371        63.12985         0.81677
H         56.13827        38.84785         2.04769
H         56.15208        64.33665         0.92167
H         59.91634        36.60102         2.01895
H         57.93877        37.93927         2.37123
H         59.82770        66.50470         0.70925
H         57.75488        65.25382         0.68711
H         61.49610        35.44009         1.11295
H         61.43495        67.47885         0.92573
H         63.63023        34.30673         1.47067
H         63.50851        68.71139         1.09989
H         67.34149        32.30436         2.22887
H         65.21870        33.45236         1.98667
H         67.20966        70.89129         1.49365
H         65.12708        69.66418         1.36167
H         69.03797        31.43178         1.87646
H         68.83554        71.85094         1.60041
H         73.32370        31.62925         2.30800
H         71.22303        30.31150         1.98027
H         73.25119        34.03272         2.74141
H         73.15960        35.88843         2.24107
H         73.13215        38.23690         1.52481
H         73.01435        39.61323        -0.04422
H         72.92336        41.78382        -1.15870
H         72.83694        43.66783        -1.87549
H         72.87776        46.07122        -2.29082
H         73.06003        48.08181        -1.53846
H         73.20261        50.45575        -2.05301
H         73.20082        52.47675        -2.16412
H         73.15208        54.88684        -2.02589
H         73.20139        56.56957        -0.91398
H         73.25456        58.94464        -0.41819
H         73.22772        60.94675        -0.28782
H         73.20979        63.27489         0.46999
H         73.18066        65.09643         1.18399
H         73.18330        67.51243         1.11879
H         73.15707        69.36168         1.54969
H         73.12560        71.78896         1.94691
H         70.95680        73.03903         1.96118
