         424
 CSIRO Nanostructure Databank - Neutral Graphene Oxide Data Set
C          3.05463         1.87839        -3.81583
C          2.86130         3.25699        -3.71126
C          3.99465         1.23538        -3.01410
C          3.59769         4.01657        -2.77769
C          2.32862         6.13919        -3.22928
C          2.18217         7.50198        -3.18519
C          3.47567         5.47038        -2.70756
C          3.31444         8.36566        -2.88048
C          1.98530        10.48079        -2.90988
C          1.89647        11.89087        -2.89552
C          3.16590         9.81444        -2.65113
C          2.97633        12.69367        -2.48404
C          1.79359        14.86004        -2.98397
C          1.80783        16.24173        -3.07289
C          2.90216        14.14222        -2.46744
C          2.92212        16.99406        -2.61976
C          3.02946        18.41331        -2.89861
C          4.74952         1.97337        -2.07573
C          4.54314         3.36823        -1.95523
C          5.77279         1.34018        -1.28750
C          5.21047         4.13347        -0.84064
C          4.47259         6.21203        -2.02926
C          4.55864         7.66011        -2.24711
C          5.39132         5.59354        -1.14644
C          5.45400         8.44854        -1.38617
C          4.42535        10.59763        -2.35352
C          4.15845        12.04653        -2.00225
C          5.37368         9.88999        -1.39259
C          5.15765        12.79033        -1.37488
C          4.01641        14.88617        -1.97833
C          3.99997        16.30778        -2.02770
C          5.13177        14.20547        -1.39324
C          5.14341        17.05900        -1.49345
C          4.14471        19.13211        -2.60842
C          5.23768        18.56494        -1.80458
C          6.61412         2.06882        -0.46288
C          6.45789         3.48914        -0.29874
C          7.72851         1.41204         0.19274
C          7.36756         4.24407         0.45085
C          6.35955         6.34086        -0.44160
C          6.34408         7.77551        -0.54846
C          7.34370         5.67448         0.39553
C          7.19550         8.56725         0.41207
C          6.32678        10.63240        -0.70320
C          6.19112        12.11582        -0.51657
C          7.40506         9.99762        -0.01042
C          7.50652        12.85028        -0.46003
C          6.32360        14.94355        -1.03262
C          6.37587        16.32217        -1.18779
C          7.50921        14.21522        -0.60679
C          7.70710        17.00670        -1.39124
C          6.55878        19.20638        -1.76325
C          7.69964        18.52164        -1.38744
C          8.53120         2.07505         1.05041
C          8.26589         3.51014         1.44707
C          9.61133         1.35975         1.80394
C          9.56403         4.26249         1.78611
C          8.41960         6.45337         0.96776
C          8.44365         7.83570         0.83089
C          9.60152         5.75762         1.56844
C          9.59175         8.64112         1.26964
C          8.56723        10.71697         0.32367
C          8.67195        12.13153         0.03366
C          9.72217        10.04754         0.85948
C          9.87405        12.80327         0.23785
C          8.68731        14.99108        -0.06644
C          8.82595        16.39945        -0.60061
C          9.98251        14.22084        -0.27360
C         10.00986        17.06445        -0.45261
C          8.94052        19.18018        -1.17896
C         10.09542        18.49614        -0.74306
C         10.90264         2.15132         1.77814
C         10.84909         3.53650         1.84102
C         12.13811         1.46075         1.75505
C         12.08763         4.31423         2.24235
C         10.91332         6.41999         1.46452
C         10.93288         7.87663         1.50723
C         12.13216         5.73764         1.71255
C         12.18001         8.60160         1.34375
C         10.95581        10.71019         0.98946
C         11.04205        12.12382         0.71627
C         12.18953         9.99095         1.25501
C         12.24731        12.82141         0.93894
C         11.14445        15.00286         0.28089
C         11.17697        16.36930         0.10367
C         12.19792        14.32231         1.10279
C         12.38927        17.10765         0.35692
C         11.29786        19.16891        -0.47138
C         12.44514        18.50139         0.04492
C         13.36518         2.14525         1.78302
C         13.38008         3.58012         1.96791
C         14.59130         1.45948         1.63416
C         14.57090         4.26776         1.99495
C         13.34702         6.41128         1.69371
C         13.44850         7.81052         1.14913
C         14.55787         5.74680         2.30121
C         14.66948         8.57202         1.60944
C         13.44622        10.70780         1.31312
C         13.45483        12.12368         1.24067
C         14.66706         9.98533         1.56023
C         14.69088        12.85059         1.41666
C         13.53147        15.00773         1.00339
C         13.56819        16.40494         0.75462
C         14.71068        14.28419         1.26612
C         14.81220        17.11107         0.84940
C         13.66733        19.19809         0.21626
C         14.84266        18.53438         0.60344
C         15.81957         2.13583         1.69116
C         15.83560         3.57730         1.90264
C         17.03568         1.45355         1.46592
C         17.03566         4.26941         2.02024
C         15.86441         6.43770         1.99999
C         15.86773         7.85970         1.86490
C         17.06426         5.71563         2.04762
C         17.10818         8.56894         1.96982
C         15.89766        10.70889         1.74064
C         15.89708        12.14738         1.66218
C         17.11339         9.99980         1.91730
C         17.13135        12.87024         1.80469
C         15.95306        14.99400         1.37539
C         15.99173        16.41724         1.18633
C         17.13159        14.28092         1.69296
C         17.24166        17.13835         1.27651
C         16.07335        19.23409         0.72671
C         17.26070        18.56893         1.04824
C         18.27497         2.11042         1.57055
C         18.31700         3.49258         2.18837
C         19.46826         1.45900         1.27052
C         19.56094         4.26979         1.82777
C         18.32492         6.41965         2.07662
C         18.31478         7.82865         2.11833
C         19.57281         5.68053         1.97924
C         19.57328         8.57299         2.30671
C         18.36565        10.72246         1.96813
C         18.37206        12.14447         1.93441
C         19.59611        10.02571         2.06116
C         19.62651        12.81968         1.89448
C         18.36539        15.04525         1.94566
C         18.42507        16.47354         1.59363
C         19.66663        14.28534         2.04779
C         19.69067        17.15941         1.64279
C         18.49755        19.26382         1.15528
C         19.69733        18.60216         1.42578
C         20.72585         2.13821         1.29511
C         20.74628         3.56787         1.53879
C         21.91213         1.46536         1.00526
C         22.00150         4.25773         1.46850
C         20.82425         6.36404         1.90988
C         20.87820         7.81039         2.18094
C         22.02431         5.68003         1.66432
C         22.09697         8.55801         1.83063
C         20.83170        10.70061         1.91332
C         20.82469        12.11133         1.76443
C         22.09060         9.96573         1.82679
C         22.08539        12.81737         1.31348
C         20.92676        15.01870         1.79940
C         20.89519        16.46420         1.78682
C         22.08121        14.31320         1.55587
C         22.18999        17.21480         1.99825
C         20.93691        19.30420         1.38665
C         22.16276        18.65297         1.52918
C         23.16936         2.14021         0.99067
C         23.19676         3.54399         1.25349
C         24.36595         1.45702         0.68820
C         24.51904         4.21527         1.50686
C         23.28226         6.40035         1.53608
C         23.28867         7.83452         1.57078
C         24.48133         5.70879         1.31993
C         24.50989         8.54038         1.35922
C         23.33039        10.66417         1.69386
C         23.33252        12.15549         1.93358
C         24.52442         9.97437         1.47095
C         24.62552        12.81811         1.51615
C         23.33651        15.03694         1.27088
C         23.41127        16.48478         1.49800
C         24.63476        14.26266         1.24400
C         24.60686        17.15518         1.34073
C         23.39023        19.31439         1.33823
C         24.62257        18.61597         1.31580
C         25.60799         2.14885         0.54778
C         25.67711         3.54693         0.82263
C         26.76916         1.47405         0.11548
C         26.87305         4.26770         0.61083
C         25.69681         6.41344         1.06849
C         25.69741         7.82490         1.08333
C         26.91155         5.69145         0.77366
C         26.91157         8.58240         0.62160
C         25.80571        10.67325         1.40671
C         25.81637        12.12250         1.47883
C         26.98271         9.99189         1.14686
C         27.09057        12.82091         1.39978
C         25.90649        14.99543         1.34939
C         25.87444        16.44090         1.24392
C         27.09608        14.27534         1.39522
C         27.06034        17.15518         1.15440
C         25.83869        19.28929         1.11629
C         27.06498        18.59036         1.01080
C         28.00390         2.15446        -0.01685
C         28.05904         3.56757         0.22052
C         29.18811         1.46595        -0.37771
C         29.30670         4.25697         0.13256
C         28.15192         6.39323         0.62206
C         28.19454         7.81176         0.72876
C         29.35624         5.67917         0.37431
C         29.41993         8.50875         0.73441
C         28.26420        10.66219         1.18550
C         28.27747        12.09651         1.37720
C         29.44464         9.92719         0.99592
C         29.60339        12.81203         1.51682
C         28.36718        14.97444         1.29199
C         28.39573        16.48701         1.36546
C         29.53827        14.28568         1.18141
C         29.44212        17.06829         0.41399
C         28.28648        19.26643         0.76614
C         29.49508        18.58013         0.52876
C         30.41852         2.14326        -0.46972
C         30.47378         3.54290        -0.19613
C         31.61829         1.45796        -0.83198
C         31.82776         4.18096        -0.07578
C         30.59736         6.38903         0.25049
C         30.63475         7.80125         0.46468
C         31.78423         5.68821        -0.09826
C         31.89084         8.51814         0.35882
C         30.78000        10.59838         1.23483
C         30.68538        12.05428         0.72305
C         31.96222         9.88093         0.63332
C         31.99628        12.80522         0.57658
C         30.86799        15.00261         1.12833
C         30.78126        16.40237         0.56785
C         31.96874        14.17341         0.49537
C         31.93643        17.08351         0.24718
C         30.70200        19.24448         0.31256
C         31.92787        18.53991         0.11676
C         32.80457         2.13659        -1.18328
C         32.85673         3.56990        -1.00467
C         33.94156         1.32079        -1.54073
C         33.98067         4.37167        -1.31175
C         32.99466         6.40010        -0.29407
C         33.07077         7.79635        -0.04923
C         34.13382         5.71320        -0.82384
C         34.33042         8.47276        -0.17600
C         33.28355        10.60791         0.70676
C         33.21720        12.06859         0.29579
C         34.42586         9.86673         0.07789
C         34.39218        12.73215        -0.04095
C         33.08354        14.89210        -0.21189
C         33.17576        16.36931         0.06033
C         34.40232        14.17246        -0.18540
C         34.35978        17.04814        -0.19004
C         33.13434        19.20565        -0.08211
C         34.36815        18.50117        -0.22247
C         35.02790         1.79263        -2.27895
C         35.03891         3.90235        -2.13318
C         36.36321         1.35934        -2.38120
C         36.36058         4.41185        -2.09351
C         35.37210         6.39440        -0.99935
C         35.47815         7.73996        -0.59252
C         36.51927         5.71970        -1.56323
C         36.83758         8.35564        -0.44211
C         35.66255        10.56003        -0.12437
C         35.66741        12.01997        -0.13382
C         36.80997         9.85378        -0.49307
C         36.83854        12.71425        -0.35831
C         35.56431        14.87760        -0.43622
C         35.58566        16.32264        -0.45121
C         36.79337        14.12736        -0.88031
C         36.78666        17.02070        -0.65556
C         35.56724        19.17248        -0.44782
C         36.79293        18.46847        -0.64249
C         37.43815         2.21456        -2.77228
C         37.47264         3.64825        -2.60971
C         38.64130         1.55927        -3.19499
C         38.71073         4.34779        -2.77907
C         37.76193         6.41587        -1.75341
C         37.90921         7.74719        -1.31672
C         38.83912         5.73300        -2.41925
C         39.11658         8.46603        -1.56990
C         38.12153        10.50905        -0.49873
C         38.13503        12.02528        -0.31637
C         39.26698         9.83796        -1.16386
C         39.38988        12.77649        -0.65106
C         38.08057        14.90748        -0.77281
C         38.04012        16.31523        -0.83135
C         39.31439        14.22752        -0.90388
C         39.25280        17.04864        -1.02314
C         37.99078        19.16183        -0.82929
C         39.22501        18.48184        -1.03427
C         39.78290         2.25360        -3.50210
C         39.85156         3.66080        -3.28940
C         41.05230         4.37579        -3.53361
C         40.06163         6.42104        -2.64477
C         40.18884         7.80637        -2.25067
C         41.14921         5.71749        -3.23908
C         41.37559         8.53680        -2.49897
C         40.43972        10.54587        -1.47615
C         40.59668        12.00191        -1.18045
C         41.49265         9.86320        -2.13409
C         41.60686        12.81331        -1.88036
C         40.49371        14.92268        -1.25366
C         40.48036        16.36300        -1.26834
C         41.60833        14.17094        -1.78131
C         41.65560        17.12500        -1.49231
C         40.42024        19.19696        -1.25690
C         41.61957        18.51599        -1.47830
O         34.73824         2.94335        -3.07717
O         38.35855        11.13831         0.82136
O          4.79563        18.07357        -0.48262
O         18.97452        14.74498         3.25768
O          4.53582         8.04880        -3.65765
O         20.33262         8.17255         3.50229
O         10.07772         8.37735         2.60976
O         40.48761        12.38871         0.22776
O         23.92593        14.61844        -0.03713
O          9.36435         5.17722         2.93995
O         10.17188        14.13541        -1.72294
H         11.00304        13.64383        -1.89104
O         31.31745        15.17202         2.51733
H         31.11253        14.32099         2.97930
O         37.23993         8.03647         0.95587
H         37.95421         8.66471         1.20315
O         22.35635        17.27657         3.46578
H         21.53142        17.65652         3.83705
O          4.24752         4.09525         0.29368
H          4.21298         3.16580         0.60697
O         32.66412        14.82214        -1.64801
H         33.45264        15.04828        -2.18786
O         33.63057        10.67543         2.17202
H         34.05308         9.82092         2.40908
O         30.99319        10.54147         2.66885
H         31.94093        10.78127         2.83234
O          6.38139         8.67907         1.64886
H          6.20423         7.76551         1.96193
O         28.81955        16.84620         2.70969
H         28.11947        16.57078         3.33671
O         22.13534        12.61629        -0.12504
H         22.81861        13.24522        -0.47537
O         28.98026        16.74982        -0.93510
H         29.64049        17.09875        -1.57018
O         26.71745         8.75091        -0.84402
H         25.92012         9.31022        -0.96672
O          8.03414        16.67075        -2.80058
H          8.45358        15.78147        -2.80258
O          9.77217         0.03733         1.30390
H         10.20368        -0.50760         1.99077
O         30.20585        11.92425        -0.64199
H         30.27563        12.79772        -1.08282
O         18.43073         3.25555         3.64001
H         19.24010         2.72057         3.78461
O         32.30158         3.83257         1.29814
H         31.61961         4.15157         1.92760
O         24.76951         4.01689         2.96361
H         24.02627         4.44294         3.44273
O         23.21255        12.37097         3.37300
H         23.88073        11.81373         3.82409
O         29.98229        12.80055         2.93339
H         29.18254        13.01526         3.45746
O          7.49226         3.43223         2.67895
H          7.70583         4.24776         3.19208
O         13.60831         7.65581        -0.32199
H         13.73879         8.55423        -0.69441
O          5.64635        12.25412         0.85269
H          6.13937        11.63169         1.43104
O          5.16410        10.67422        -3.62663
H          5.19626         9.74820        -3.97794
O         11.98646         4.45807         3.70807
H         11.09901         4.86382         3.87464
O         11.75700        14.52308         2.50614
H         10.78605        14.37352         2.53149
O         36.62236        13.95951        -2.35243
H         36.66702        14.85607        -2.74964
O          8.48959        15.09283         1.37466
H          7.60733        15.49013         1.53370
O         14.39069         5.88237         3.75455
H         13.57007         5.37935         3.99907
H          2.47156         1.30105        -4.54698
H          2.13781         3.75084        -4.37445
H          4.15931         0.15262        -3.10921
H          1.47238         5.53036        -3.55328
H          1.19857         7.94928        -3.38332
H          1.08764         9.91464        -3.19797
H          0.94696        12.35104        -3.19937
H          0.91581        14.31633        -3.35953
H          0.95376        16.76858        -3.52266
H          2.21315        18.88139        -3.46916
H          5.94083         0.26007        -1.41038
H          4.25097        20.16358        -2.97683
H          7.91207         0.34762        -0.01351
H          6.61946        20.28391        -1.98467
H          9.28813         1.30024         2.88849
H          8.98013        20.27565        -1.28183
H         12.13657         0.36593         1.65417
H         11.36620        20.24784        -0.67775
H         14.58178         0.37016         1.47972
H         13.70510        20.27558        -0.00297
H         17.00977         0.39798         1.15462
H         16.09042        20.32023         0.55205
H         19.44453         0.40346         0.95874
H         18.51131        20.35025         0.98118
H         21.88340         0.38644         0.79229
H         20.92338        20.37814         1.14413
H         24.33195         0.37731         0.48159
H         23.38879        20.39580         1.13122
H         26.72438         0.39430        -0.09000
H         25.83814        20.38649         1.03128
H         29.14561         0.38458        -0.57552
H         28.28286        20.36713         0.72803
H         31.58075         0.36425        -0.94643
H         30.72663        20.34488         0.34678
H         33.96075         0.29053        -1.15503
H         33.14465        20.30469        -0.13872
H         36.60867         0.31914        -2.11965
H         35.57720        20.27220        -0.48138
H         38.62001         0.46594        -3.31198
H         37.98385        20.26200        -0.82374
H         40.67343         1.72593        -3.87309
H         41.91632         3.83953        -3.95197
H         42.09820         6.23224        -3.43657
H         42.22639         8.05916        -3.00123
H         42.43186        10.38762        -2.35247
H         42.40482        12.32044        -2.45262
H         42.43125        14.72673        -2.25279
H         42.61576        16.61806        -1.65721
H         40.39998        20.29608        -1.25720
H         42.54565        19.08437        -1.64360
