         420
 CSIRO Nanostructure Databank - Neutral Graphene Oxide Data Set
C         27.94606        27.72278        -1.25188
C         27.87895        29.04583        -0.75826
C         26.70224        29.81362        -0.80711
C         27.90942        31.82706        -0.05242
C         26.70178        31.14331        -0.41280
C         27.90527        33.25283         0.20791
C         26.71684        34.01768         0.14474
C         27.91711        36.02031         0.82426
C         26.73156        35.37333         0.41444
C         27.89031        37.52374         0.96258
C         26.72576        38.09749         1.73909
C         27.96210        40.25572         2.08536
C         26.73642        39.37397         2.14521
C         27.81013        41.54893         1.29006
C         26.62564        42.40502         1.44900
C         27.86250        44.36619         0.62713
C         26.64500        43.70050         1.04201
C         27.85543        45.74609         0.29485
C         30.38711        27.64298        -0.92081
C         29.13952        27.02741        -1.30280
C         30.35962        28.93667        -0.40981
C         29.06684        29.60235        -0.02378
C         30.35709        31.79616         0.23412
C         29.12012        31.11337         0.01726
C         30.36398        33.18926         0.51170
C         29.11943        33.90978         0.56360
C         30.35591        35.90388         1.50392
C         29.10862        35.29410         0.90080
C         30.40164        37.40514         1.41202
C         29.19499        38.12398         1.42668
C         30.42507        40.21831         1.52606
C         29.20133        39.51017         1.63129
C         30.40579        41.61611         1.26355
C         29.11614        42.24595         0.93139
C         30.32642        44.38698         0.51472
C         29.09690        43.69136         0.68744
C         30.29538        45.76668         0.15733
C         29.03581        46.41457         0.04121
C         32.86217        24.93339        -1.94039
C         31.70540        25.59180        -1.65683
C         32.86342        27.62649        -0.97561
C         31.66366        26.96999        -1.20564
C         32.89441        28.91247        -0.25604
C         31.58639        29.61799         0.02069
C         32.82902        31.78095         0.17586
C         31.60842        31.08871         0.15950
C         32.84173        33.19292         0.44569
C         31.61451        33.88542         0.68503
C         32.86489        35.95319         1.19201
C         31.64104        35.25382         1.05593
C         32.88842        37.36904         1.51816
C         31.64027        38.08219         1.53710
C         32.89158        40.22203         1.49011
C         31.65888        39.50557         1.52516
C         32.86389        41.63713         1.23856
C         31.60879        42.32162         1.08244
C         32.80152        44.40830         0.51144
C         31.58247        43.70580         0.69219
C         32.77541        45.78553         0.11394
C         31.53779        46.46393        -0.07520
C         32.75867        48.48206        -0.70427
C         31.56554        47.82282        -0.47883
C         35.51695        23.61212        -2.59057
C         35.44530        24.90380        -2.03315
C         34.14911        25.63399        -2.02065
C         35.39693        27.60609        -0.94973
C         34.13695        27.07426        -1.46630
C         35.39460        28.94655        -0.23468
C         34.11454        29.72790        -0.30776
C         35.33356        31.86517        -0.06536
C         34.09337        31.08826        -0.05791
C         35.30476        33.23421         0.20237
C         34.07083        33.90599         0.51989
C         35.33499        35.96999         1.10697
C         34.08737        35.27665         0.89579
C         35.32469        37.26964         1.68244
C         34.10549        38.06922         1.71884
C         35.32292        40.32835         1.67510
C         34.11972        39.52311         1.70349
C         35.31906        41.67381         1.19618
C         34.07049        42.35416         1.03393
C         35.28103        44.47923         0.62321
C         34.05491        43.74496         0.70881
C         35.24056        45.84166         0.25829
C         34.00787        46.48373        -0.06264
C         35.25294        48.51399        -0.77891
C         34.00318        47.83987        -0.50592
C         35.26971        49.72266        -1.51656
C         37.94300        23.56048        -2.32268
C         36.73486        22.97593        -2.77345
C         37.86849        24.81293        -1.65810
C         36.63593        25.52053        -1.57300
C         37.81144        27.52089        -0.63634
C         36.59997        26.88938        -1.04609
C         37.80624        28.94760        -0.32637
C         36.58634        29.74635        -0.73752
C         37.79955        31.84421        -0.18209
C         36.59779        31.18599        -0.27948
C         37.84003        33.31064        -0.08005
C         36.53934        34.04049         0.13522
C         37.81165        36.04352         1.01294
C         36.58555        35.37241         0.78868
C         37.81926        37.25415         1.74615
C         36.56516        37.73594         2.16310
C         37.81009        40.36399         1.72934
C         36.57114        39.84791         2.13890
C         37.78016        41.67038         1.18210
C         36.55574        42.35880         1.00299
C         37.76272        44.49593         0.64910
C         36.55919        43.79997         0.76465
C         37.78107        45.95721         0.70311
C         36.44929        46.66920         0.37859
C         37.70539        48.61239        -0.63508
C         36.48936        47.96632        -0.33231
C         37.69841        49.83782        -1.36273
C         36.45415        50.36326        -1.79920
C         40.53846        20.99639        -3.30003
C         39.32186        21.62371        -3.11109
C         40.43624        23.54274        -2.08229
C         39.22972        22.89995        -2.50085
C         40.39920        24.79455        -1.40253
C         39.09558        25.33956        -1.03296
C         40.35307        27.53107        -0.41630
C         39.06313        26.80518        -0.47176
C         40.37622        28.92256        -0.26494
C         39.10947        29.65816        -0.13865
C         40.39360        31.82630        -0.06700
C         39.09681        31.13276        -0.32889
C         40.34714        33.19948         0.49725
C         39.07138        33.96172         0.46889
C         40.36471        35.99852         1.12303
C         39.10992        35.48541         0.45596
C         40.39039        37.26782         1.94223
C         39.06458        38.03598         2.02094
C         40.34926        40.23885         1.52478
C         39.07729        39.59510         1.94603
C         40.34951        41.68441         1.25256
C         39.04615        42.42881         1.10904
C         40.33294        44.47735         0.45187
C         39.02676        43.72902         0.31884
C         40.39166        45.96775         0.70901
C         39.06597        46.72143         0.51501
C         40.24247        48.66500        -0.70713
C         39.00805        48.07175        -0.17126
C         40.18855        49.90303        -1.35881
C         38.92745        50.53026        -1.65509
C         40.08280        52.51263        -2.49754
C         38.91713        51.83981        -2.20417
C         43.00305        20.95780        -3.02808
C         41.74632        21.60830        -2.87412
C         42.90704        23.50696        -1.80592
C         41.69928        22.89302        -2.26453
C         42.86418        24.81152        -1.21763
C         41.60034        25.45799        -1.02015
C         42.81376        27.50033        -0.30284
C         41.58123        26.81414        -0.54957
C         42.81692        28.89489        -0.00593
C         41.60203        29.63432        -0.07102
C         42.80967        31.70811         0.51303
C         41.61631        31.03312         0.16632
C         42.80366        33.15147         0.73568
C         41.62657        33.89957         0.68880
C         42.82099        35.95955         1.33308
C         41.56808        35.29288         1.04988
C         42.82329        37.39615         1.47514
C         41.61210        38.10101         1.58851
C         42.78711        40.26066         1.17052
C         41.56359        39.53369         1.43423
C         42.77736        41.62829         0.84920
C         41.56573        42.34567         0.74763
C         42.79161        44.45948         0.19287
C         41.52641        43.76414         0.47800
C         42.73472        45.89167        -0.16800
C         41.56345        46.61702        -0.00728
C         42.73140        48.63869        -1.00515
C         41.56253        48.12400        -0.20134
C         42.66913        49.94265        -1.56714
C         41.40540        50.59445        -1.72024
C         42.55231        52.54851        -2.65966
C         41.34778        51.88986        -2.28636
C         44.16196        21.54819        -2.57826
C         45.36259        23.44708        -1.46979
C         44.15075        22.82851        -1.95325
C         45.32540        24.76010        -0.92314
C         44.07564        25.45319        -0.82489
C         45.26426        27.45976         0.04104
C         44.05445        26.80178        -0.36229
C         45.22885        28.81361         0.43658
C         44.02602        29.56246         0.35359
C         45.26186        31.66161         0.89076
C         44.01645        30.97263         0.62429
C         45.25929        33.09109         1.03755
C         44.04372        33.81713         1.01998
C         45.28423        35.92030         1.36152
C         44.02757        35.23078         1.25889
C         45.25629        37.36505         1.32207
C         44.08049        38.08625         1.37494
C         45.26705        40.23500         0.71313
C         44.11523        39.59812         1.46558
C         45.28850        41.59306         0.45641
C         44.07429        42.40986         0.85154
C         45.28856        44.44419        -0.10277
C         43.97236        43.76438         0.19264
C         45.10489        45.70607        -0.91741
C         43.91680        46.53099        -0.67105
C         45.13164        48.50976        -1.60343
C         43.91852        47.88293        -1.10286
C         45.11609        49.88987        -1.95232
C         43.85724        50.59325        -2.01806
C         43.76860        51.91332        -2.53451
C         47.77020        23.37140        -1.07601
C         46.61300        22.77541        -1.52980
C         47.76846        24.68418        -0.53945
C         46.53207        25.39298        -0.46561
C         47.71999        27.35177         0.49050
C         46.50749        26.72916         0.03645
C         47.71322        28.74164         0.88442
C         46.40554        29.43984         1.13226
C         47.70800        31.62266         1.15340
C         46.46268        30.94218         0.98975
C         47.71285        33.03902         1.27711
C         46.50489        33.77423         1.25096
C         47.78180        35.92095         1.50894
C         46.49118        35.20461         1.38437
C         47.80182        37.42023         1.25488
C         46.50561        38.02499         0.88150
C         47.77894        40.17633         0.36090
C         46.49507        39.46795         0.48561
C         47.72761        41.54611        -0.00318
C         46.47396        42.21689        -0.03469
C         47.64880        44.26354        -0.96303
C         46.33652        43.51479        -0.77992
C         47.63341        45.60929        -1.32626
C         46.34881        46.33818        -1.46941
C         47.56850        48.44322        -1.98903
C         46.35535        47.79576        -1.67960
C         47.53685        49.83332        -2.25463
C         46.34232        50.52722        -2.26347
C         50.23418        24.64574        -0.14792
C         48.98055        25.30603        -0.05945
C         50.14545        27.15325         1.20158
C         48.93238        26.62431         0.46429
C         50.15773        28.67833         1.32161
C         48.90056        29.44268         1.10465
C         50.19873        31.58274         1.09175
C         48.93691        30.86965         1.19176
C         50.20069        32.97941         1.08526
C         49.01585        33.72568         1.62768
C         50.20965        35.89851         1.03776
C         49.02973        35.19737         1.29868
C         50.20544        37.32889         0.77324
C         49.03926        38.06536         0.77768
C         50.21615        40.17352         0.14131
C         49.00859        39.47162         0.40092
C         50.18751        41.55082        -0.19513
C         48.94882        42.22465        -0.33870
C         50.09960        44.22169        -1.20042
C         48.90004        43.58087        -0.82582
C         50.07035        45.57754        -1.67267
C         48.84186        46.30102        -1.65559
C         50.01251        48.27741        -2.45205
C         48.81883        47.68165        -2.03525
C         51.43415        25.28858         0.17034
C         52.71338        27.27472         0.91230
C         51.46360        26.57339         0.71113
C         52.72227        28.67476         1.09489
C         51.45830        29.41711         1.28374
C         52.68183        31.53001         0.98635
C         51.45708        30.87113         1.02702
C         52.73717        32.96214         0.68552
C         51.38905        33.72997         0.71878
C         52.68637        35.86570         0.82482
C         51.44132        35.18641         0.86954
C         52.72261        37.27310         0.68220
C         51.46661        37.95821         0.32643
C         52.85389        40.16506        -0.00059
C         51.49074        39.43395         0.01566
C         52.68101        41.69647        -0.02373
C         51.44192        42.25585        -0.40698
C         52.55570        44.21860        -1.38065
C         51.37289        43.56729        -0.99123
C         52.48577        45.35466        -2.37544
C         51.25264        46.20760        -2.15394
C         51.20454        47.54365        -2.53412
C         55.16104        27.27828         0.98871
C         53.97262        26.59693         0.85818
C         55.18131        28.69652         1.11188
C         53.94107        29.39916         1.13626
C         55.15288        31.54763         1.24986
C         53.93594        30.83350         1.15879
C         55.14413        33.01014         1.29727
C         53.95720        33.71898         1.00269
C         55.08967        35.87033         1.37223
C         53.92298        35.13817         1.03034
C         55.03413        37.31707         1.46958
C         53.88933        38.03285         0.98475
C         54.94130        40.11528         1.57052
C         53.86261        39.47750         0.95192
C         55.03325        42.33148         0.64650
C         53.83052        42.55240        -0.08856
C         54.97881        44.53631        -1.06822
C         53.78962        43.75509        -0.87163
C         54.91302        45.72790        -1.89566
C         53.76852        46.13840        -2.47416
C         56.39029        29.43546         1.20423
C         56.37143        30.81353         1.29146
C         56.30432        33.76179         1.60753
C         56.27605        35.14451         1.64720
C         56.08337        38.03585         2.08167
C         56.00115        39.40864         2.18833
C         56.16729        43.11962         0.48935
C         56.16032        44.18982        -0.42123
O         50.79778        29.08399         2.58729
O         39.88480        31.65511        -1.45183
O         34.14635        26.78964        -2.91389
O         39.72999        42.48878         2.38542
O         28.32302        41.45456        -0.06463
O         32.29848        28.88770         1.10028
O         39.08619        38.86306         3.21782
O         36.97704        46.57901         1.74471
O         39.06893        47.93194         1.34381
O         52.04188        33.31240        -0.54015
O         38.97636        25.63278         0.39293
O         51.40673        38.44158        -1.07940
O         45.39347        45.62710        -2.36526
O         47.83751        36.91571         2.61811
O         46.40139        38.36168        -0.54035
O         37.20841        34.01529        -1.20042
O         55.04808        41.48678         1.75144
O         36.53362        38.80154         3.06568
O         39.47782        33.31632         1.70687
O         38.30393        29.26482         1.02092
O         40.68830        46.05581         2.14219
H         40.21393        46.84102         2.49881
O         50.00236        26.62828         2.56184
H         50.42279        27.29463         3.15630
O         45.85394        43.09219        -2.08010
H         45.71485        43.90842        -2.62360
O         45.84390        44.86444         1.17383
H         45.59745        44.18233         1.84368
O         44.32281        42.71364         2.29377
H         43.52146        43.17119         2.63474
O         35.59532        28.70309         1.18320
H         34.73431        28.44933         1.57935
O         41.74228        48.69180         1.15534
H         40.87113        48.58739         1.61091
O         28.21858        40.69396         3.45312
H         28.40064        39.89875         3.99666
O         52.28173        44.73115        -3.69207
H         53.01240        44.09155        -3.82848
O         44.40939        39.89751         2.87699
H         44.40879        40.88360         2.96419
O         53.44540        39.93770        -1.31126
H         52.94855        39.18355        -1.71666
O         40.63636        36.80609         3.31502
H         40.41160        37.56102         3.90657
O         49.12990        33.66165         3.09985
H         48.42804        34.23604         3.47555
O         39.18416        35.89980        -0.94189
H         38.44801        35.43635        -1.41453
O         28.85976        29.20882         1.40136
H         28.89372        28.22854         1.43413
O         38.92555        43.35560        -1.10113
H         38.07318        42.88578        -1.22614
O         30.25922        35.62003         2.95242
H         30.28690        34.64509         3.06039
O         27.72570        38.00513        -0.41416
H         27.82368        38.98326        -0.40944
O         46.14752        29.21379         2.57903
H         45.30196        29.66206         2.79662
O         36.51168        29.77184        -2.18365
H         37.10349        30.47725        -2.52011
H         27.03076        27.25719        -1.64760
H         25.77871        29.36058        -1.19803
H         25.75659        31.69851        -0.46299
H         25.76707        33.54952        -0.14365
H         25.80621        35.95680         0.31197
H         25.81571        37.49054         1.86545
H         25.85784        39.79463         2.65976
H         25.72227        41.97880         1.90937
H         25.73449        44.31283         1.12535
H         26.89629        46.28041         0.23715
H         29.13854        26.01226        -1.71930
H         28.98955        47.47771        -0.22917
H         32.83778        23.84491        -2.09676
H         30.77239        25.01158        -1.64980
H         32.72541        49.53459        -1.01489
H         30.62751        48.37300        -0.62817
H         34.60089        23.12558        -2.95351
H         34.33292        50.14863        -1.89814
H         36.74381        22.00221        -3.27980
H         36.42125        51.28498        -2.39323
H         40.57850        20.00593        -3.77542
H         38.41145        21.10807        -3.44404
H         40.04742        53.52808        -2.91670
H         37.96223        52.34961        -2.38632
H         43.03658        19.96693        -3.50350
H         42.49877        53.56335        -3.07938
H         45.11067        21.01212        -2.71283
H         44.67557        52.43656        -2.86501
H         48.70656        22.80203        -1.13814
H         46.67393        21.75665        -1.93392
H         48.46290        50.37794        -2.47961
H         46.36075        51.59894        -2.50090
H         50.29276        23.63044        -0.56034
H         50.03192        49.33042        -2.76173
H         52.37328        24.76956        -0.06889
H         52.10152        48.04904        -2.91552
H         56.11391        26.72952         0.98037
H         53.99560        25.50385         0.75415
H         55.84152        46.30288        -2.03415
H         53.78344        47.02104        -3.12936
H         57.34913        28.89747         1.20076
H         57.32718        31.35102         1.35547
H         57.24730        33.24812         1.83786
H         57.20336        35.67944         1.89239
H         56.94679        37.51194         2.51117
H         56.78948        39.98249         2.69235
H         57.05253        42.91899         1.10625
H         57.06253        44.80179        -0.56024
