         260
 CSIRO Nanostructure Databank - Neutral Graphene Oxide Data Set
C         31.54996        32.16503        -3.87776
C         31.47323        33.35333        -3.46211
C         31.34462        36.61481        -2.79078
C         30.95467        37.62096        -2.16983
C         30.51137        40.29617        -0.00140
C         30.40706        41.34391         0.66714
C         33.72251        29.37345        -2.96587
C         32.82182        29.90341        -3.68365
C         33.44821        31.90590        -1.86712
C         31.98520        30.96498        -3.29222
C         33.36825        33.42175        -1.80207
C         32.52480        34.22882        -2.92361
C         33.53141        36.36312        -1.80134
C         32.51826        35.73012        -2.72709
C         33.60849        37.72036        -1.53925
C         31.66477        38.78236        -1.69114
C         32.89576        40.31833        -0.15500
C         31.63150        39.65433        -0.62964
C         32.80330        41.79011         0.14053
C         31.41327        42.41060         0.52639
C         32.66555        44.29481         1.25735
C         31.59423        43.65464         1.28200
C         36.19923        27.63655        -1.94539
C         35.83090        28.96917        -1.61556
C         34.75784        29.75079        -2.06995
C         35.74366        31.81609        -0.96606
C         34.60493        31.16159        -1.68404
C         35.88822        33.30446        -1.06252
C         34.73320        34.07688        -1.63229
C         35.53595        36.06567        -0.24551
C         34.69451        35.55191        -1.34945
C         35.01617        37.26419         0.34012
C         34.24741        38.21340        -0.33712
C         35.15895        40.25617         0.92701
C         34.04794        39.58878         0.14205
C         35.21262        41.76827         0.95150
C         34.12177        42.59127         0.28031
C         35.17346        44.63819         1.41995
C         34.03724        43.96876         1.07149
C         35.42256        45.93603         1.98093
C         38.25885        27.27225        -0.67090
C         37.20230        26.97682        -1.58008
C         38.03593        28.69184        -0.19473
C         36.84659        29.50853        -0.64187
C         38.19965        31.72809        -0.10209
C         36.87622        31.00718        -0.43276
C         37.87379        33.07956         0.57123
C         36.90984        33.98246        -0.17913
C         37.65170        35.99570         1.13971
C         36.64384        35.37587         0.30359
C         37.72962        37.39297         1.38836
C         36.54153        38.20930         1.43825
C         37.71550        40.28830         1.44711
C         36.45492        39.55557         1.18188
C         37.75580        41.76238         1.56219
C         36.52880        42.49806         1.11824
C         37.73864        44.51601         2.11749
C         36.53368        43.97811         1.31328
C         37.81708        46.05543         2.28479
C         36.43443        46.56797         2.32371
C         40.76764        24.54635        -0.22838
C         39.75434        25.24168        -0.46191
C         40.17228        27.12115         1.03123
C         39.29681        26.53941        -0.15090
C         40.41926        28.57216         0.64769
C         39.35336        29.44748        -0.01235
C         40.35615        31.61147         1.24753
C         39.09741        30.80148         0.77441
C         40.22358        33.03628         1.72131
C         38.90498        33.73907         1.43063
C         40.20582        35.96938         1.53883
C         38.85984        35.23827         1.53358
C         40.19436        37.40313         1.26203
C         38.99936        38.07654         1.37337
C         40.24051        40.33077         1.07073
C         38.97529        39.54810         1.15927
C         40.23956        41.79406         1.27155
C         39.05991        42.48878         1.47483
C         40.20382        44.65259         1.28606
C         39.04519        43.90600         1.64098
C         40.13631        46.07832         1.13433
C         39.04781        46.82305         1.86560
C         40.19785        48.99162         1.67883
C         39.14983        48.28475         1.76083
C         42.98071        24.45209         1.09431
C         41.51716        24.82810         1.08887
C         42.64952        27.10522         1.85192
C         41.49257        26.36855         1.29037
C         42.79205        28.61316         1.49065
C         41.67922        29.06241         0.64658
C         42.86670        31.66822         1.57977
C         41.74174        31.22286         0.93540
C         42.85391        33.12511         1.93567
C         41.48787        33.88089         2.02727
C         42.72036        35.95547         1.02234
C         41.43564        35.14856         1.15698
C         42.69246        37.30281         0.81663
C         41.50065        38.10469         1.21669
C         42.73370        40.34564         0.80513
C         41.53706        39.60341         1.24054
C         42.71317        41.74948         0.70107
C         41.56203        42.51433         1.34655
C         42.49138        44.65590         0.35600
C         41.41223        43.96314         0.91139
C         42.35092        46.03823         0.02140
C         41.11975        46.68040         0.32094
C         42.68414        48.89526         0.85446
C         41.26931        48.89164         0.78372
C         43.85018        25.05789         1.71536
C         45.17260        27.15239         1.48895
C         44.03996        26.42634         2.25230
C         45.33670        28.68010         1.85442
C         44.05652        29.44026         1.51465
C         45.39205        31.54273         1.49027
C         44.07716        30.82526         1.50027
C         45.39161        33.04863         1.38113
C         44.11063        33.85920         1.50494
C         45.04291        35.72937        -0.13418
C         43.93657        35.13829         0.70006
C         44.97041        37.24113        -0.45259
C         43.77390        38.03721         0.10419
C         45.10453        40.26804         0.00156
C         43.78132        39.56228         0.11695
C         45.15402        41.80320         0.02244
C         43.78358        42.44716         0.12361
C         44.77962        44.59718        -0.88974
C         43.64670        43.88137        -0.19796
C         44.78914        46.14126        -0.84731
C         43.54929        46.84508        -0.40137
C         43.48681        48.17995         0.20646
C         47.57625        27.23719         1.58853
C         46.55292        26.56678         1.74421
C         47.82809        28.63065         1.32507
C         46.64536        29.33431         1.33782
C         47.90907        31.53944         1.07090
C         46.58373        30.78377         0.90746
C         47.88066        33.01938         0.72423
C         46.57636        33.78122         0.82206
C         47.52864        35.31818        -0.94109
C         46.39391        35.02382        -0.02078
C         47.45847        37.48933        -1.25248
C         46.16533        38.07600        -0.89323
C         47.56590        40.21103        -0.78996
C         46.29348        39.50781        -0.46153
C         47.42658        41.63535        -1.21067
C         46.10359        42.35629        -1.06364
C         47.36421        44.58523        -1.59971
C         46.06530        43.85712        -1.28172
C         47.22601        45.97149        -1.10460
C         46.19342        46.57394        -0.80719
C         50.29697        28.62892         0.47724
C         49.22107        29.22058         1.31833
C         50.14544        31.29956        -0.18035
C         49.19066        30.76366         0.89520
C         50.06272        32.75893        -0.62216
C         49.03743        33.64891         0.01272
C         50.05391        35.71074        -1.07094
C         48.80247        34.89745        -0.76187
C         49.88514        37.22248        -1.51680
C         48.69476        38.03729        -1.05787
C         50.05767        40.19690        -0.97354
C         48.74214        39.49958        -0.88554
C         50.02496        41.71855        -1.04589
C         48.70249        42.43319        -1.25694
C         49.95399        44.50557        -1.40070
C         48.67258        43.85568        -1.90900
C         51.31938        29.12592        -0.02215
C         52.28419        31.26055        -1.37690
C         51.27908        30.39750        -0.75673
C         52.20870        32.45182        -1.69812
C         51.10321        33.41891        -1.55305
C         52.32736        35.76443        -1.84357
C         51.07670        34.90349        -1.95593
C         52.28826        36.99497        -1.78980
C         51.17469        37.96259        -1.79555
C         52.25685        40.32857        -2.06566
C         51.29267        39.40924        -1.43384
C         52.29193        41.56651        -1.82658
C         51.29094        42.47414        -1.45082
C         51.02791        43.83741        -1.53420
O         36.89937        28.83038         0.67250
O         39.52855        39.90576        -0.16214
O         44.02440        34.89667        -0.76805
O         41.70692        38.85100         2.49243
O         48.87419        31.42055         2.15729
O         35.34667        37.50930         1.66931
O         37.72879        33.08509         2.01325
O         39.48417        35.67674         2.76637
O         37.64571        40.95195         2.77285
O         40.18799        31.95222         2.67481
O         32.19501        31.23936        -1.86763
O         33.11975        35.08971        -3.89198
O         43.21824        38.83598        -1.01159
O         36.85018        43.41432         0.02013
O         46.42158        41.66070        -2.29291
O         32.95236        38.70052        -2.29673
O         49.89956        32.82036        -2.07747
O         37.13853        33.81659        -1.62588
O         45.14552        37.63268        -1.83697
O         43.71564        33.77622         2.89829
O         43.68710        44.09931        -1.69063
O         47.32862        36.27959        -1.92876
O         43.94222        46.78850        -1.80685
O         38.81003        46.39057         3.25263
O         45.72082        32.35476         2.63705
O         42.28950        28.16024         2.79872
O         41.93339        30.25692        -0.05735
O         40.89488        47.96554        -0.24761
O         35.78612        31.40841         0.45385
O         46.40797        44.29542        -2.64103
O         49.32637        42.36877         0.05903
O         35.27639        34.99433        -2.60292
O         51.05728        39.67930        -0.03208
O         48.96145        33.72523         1.44391
O         46.01009        39.66473         0.99643
O         46.81316        35.10079         1.39126
O         31.91575        42.49079        -0.81569
O         34.70923        41.04925         2.09887
O         50.27258        37.60991        -2.87424
O         50.00555        30.48830        -1.40973
O         45.82325        42.22329         1.24692
H         46.12284        41.41085         1.72260
O         40.83614        24.19280         2.12423
H         40.84830        23.22504         1.98044
O         38.96751        32.01573        -1.27570
H         38.48088        32.68862        -1.81569
O         39.33929        27.01217         2.19431
H         39.83855        27.35520         2.96600
O         45.45779        28.74297         3.30223
H         45.43012        29.68205         3.58616
O         48.77797        43.67940        -3.30641
H         47.97148        44.03494        -3.74376
O         50.63956        34.95979        -3.29009
H         51.15319        34.33253        -3.83838
O         41.38121        34.27763         3.39305
H         41.22387        33.47600         3.93545
O         38.39962        30.40821         1.93906
H         38.14070        31.21368         2.44609
O         46.35334        30.81303        -0.53365
H         46.84749        30.08235        -0.96380
O         50.69250        35.78940         0.22423
H         50.02400        35.93954         0.92624
O         41.94361        42.56895         2.76552
H         41.16600        42.87656         3.27812
O         34.53330        42.91254        -1.04629
H         33.73628        43.19682        -1.54693
O         39.73777        29.67067        -1.37673
H         40.61221        30.12312        -1.39409
O         37.49627        44.02279         3.45803
H         38.09166        44.50219         4.07455
O         41.16907        34.66590        -0.19910
H         41.93009        34.87653        -0.78821
O         44.89437        27.08448         0.10314
H         44.75420        26.14451        -0.14684
O         49.66387        29.12353         2.66912
H         49.32833        29.90594         3.16450
O         32.64238        33.72687        -0.58333
H         31.96499        33.02756        -0.44771
O         44.21297        26.41323         3.64026
H         44.65335        27.24719         3.92603
