         224
 CSIRO Nanostructure Databank - Neutral Graphene Oxide Data Set
C        -11.03652         0.77691        -0.77464
C         -9.83023         1.53103        -0.59464
C         -8.59011         0.84352        -0.42055
C         -7.40247         1.57934        -0.15633
C         -6.11227         0.83998         0.13483
C         -4.86682         1.61568        -0.30263
C         -3.57369         0.88102        -0.17437
C         -2.34350         1.59153         0.25550
C         -1.20379         0.85486         0.55150
C          0.02923         1.49578         0.93419
C          1.23735         0.80296         1.05304
C          2.50242         1.49853         1.07240
C          3.75670         0.75175         0.84173
C          4.95051         1.45420         0.51315
C          6.15846         0.74827         0.31752
C          7.37129         1.45875        -0.15129
C          8.45915         0.66540        -0.77222
C          9.48609         1.35996        -1.53716
C         10.65323         0.57655        -1.90060
C         -9.82695         2.93581        -0.60353
C         -8.67003         3.66728        -0.30978
C         -7.43892         2.97752        -0.00763
C         -6.19372         3.67748         0.35242
C         -4.88428         3.14645        -0.19925
C         -3.64391         3.73336         0.46733
C         -2.40570         3.02871         0.50427
C         -1.24208         3.69982         0.97943
C         -0.02631         2.91849         1.28504
C          1.31266         3.64570         1.53039
C          2.52384         2.89260         1.16828
C          3.76136         3.62702         0.83746
C          4.90064         2.87980         0.25695
C          5.91600         3.54670        -0.37256
C          7.20983         2.88371        -0.60084
C          8.05915         3.42406        -1.73316
C          9.36320         2.68750        -1.87769
C         -8.69110         5.10661        -0.52172
C         -7.89896         5.94114         0.20901
C         -6.17747         4.86734         1.00758
C         -4.98445         5.69133         1.38320
C         -3.68892         5.07553         0.88777
C         -2.49399         5.76671         1.18997
C         -1.26260         5.09169         1.20095
C         -0.05515         5.87839         1.68120
C          1.29334         5.15633         1.52303
C          2.50652         5.89090         1.04361
C          3.74775         5.11886         0.68399
C          4.74227         5.77419        -0.19073
C          5.72774         4.92949        -0.95625
C          7.03325         5.64770        -1.25801
C          8.13455         4.93024        -1.63619
C         -7.44849         7.25500        -0.17832
C         -6.23643         7.81349         0.13691
C         -5.20967         7.27052         1.14636
C         -3.83192         7.96318         1.04961
C         -2.52654         7.24691         1.28193
C         -1.24383         7.95141         0.96906
C         -0.04379         7.29535         1.09398
C          1.19770         7.99267         0.74908
C          2.40773         7.28897         0.57138
C          3.55230         7.92015         0.03478
C          4.71521         7.13538        -0.36864
C          5.85704         7.80633        -0.98620
C          6.99418         7.08920        -1.31240
C         -6.10332         9.22717        -0.21520
C         -4.94925         9.91239        -0.11442
C         -3.68132         9.14472         0.09095
C         -2.47239         9.98430         0.37829
C         -1.29871         9.38584         0.69222
C         -0.03726        10.19605         0.86106
C          1.19038         9.39208         0.50524
C          2.34058        10.03424         0.05015
C          3.51705         9.30986        -0.24105
C          4.68348         9.95146        -0.80408
C          5.79518         9.24049        -1.14685
C        -11.01687        -0.59233        -0.78000
C         -9.78168        -1.31566        -0.68131
C         -8.56572        -0.58120        -0.52921
C         -7.30560        -1.26576        -0.53740
C         -6.10601        -0.60048        -0.34534
C         -4.82996        -1.30243        -0.46412
C         -3.58500        -0.60515        -0.20625
C         -2.39190        -1.28408        -0.11821
C         -1.24176        -0.63228         0.53519
C         -0.01048        -1.43892         0.82676
C          1.24517        -0.67648         1.13839
C          2.54185        -1.41231         1.06646
C          3.79709        -0.66211         0.83872
C          5.00718        -1.38519         0.64432
C          6.20728        -0.64872         0.47643
C          7.59447        -1.22589         0.51536
C          8.53828        -0.68224        -0.51561
C          9.59359        -1.49336        -1.10298
C         10.69650        -0.77031        -1.70240
C         -9.78141        -2.73157        -0.68948
C         -8.58538        -3.47726        -0.70116
C         -7.30683        -2.71493        -0.97003
C         -6.07523        -3.42492        -0.46572
C         -4.80972        -2.68177        -0.64624
C         -3.56206        -3.40389        -0.91170
C         -2.25684        -2.65395        -0.62820
C         -0.96529        -3.40931        -0.46241
C          0.12470        -2.82533         0.30652
C          1.33976        -3.55461         0.47839
C          2.52050        -2.86599         0.80637
C          3.77255        -3.55648         1.13206
C          5.02316        -2.85715         0.70141
C          6.07070        -3.60915         0.20601
C          7.06063        -3.10311        -0.79075
C          8.43788        -3.68854        -0.74100
C          9.56979        -2.88225        -1.12276
C         -8.57520        -4.87011        -0.60585
C         -7.37279        -5.64399        -0.46311
C         -6.07784        -4.90172        -0.39139
C         -4.84403        -5.65533        -0.78568
C         -3.54640        -4.91487        -1.02840
C         -2.24533        -5.69874        -0.98518
C         -0.94289        -4.96307        -0.69429
C          0.19897        -5.68625        -0.13339
C          1.35553        -5.02068         0.30533
C          2.53621        -5.77014         0.66179
C          3.73337        -5.07245         1.16693
C          5.05328        -5.78445         1.11982
C          6.25644        -5.02497         0.59876
C          7.41603        -5.79175         0.06237
C          8.53844        -5.03077        -0.44691
C         -7.34728        -6.98809        -0.18329
C         -6.06761        -7.62915         0.30632
C         -4.85230        -7.11594        -0.45406
C         -3.58004        -7.82256        -0.27905
C         -2.30343        -7.25164        -0.85753
C         -1.09622        -7.87546        -0.21079
C          0.18126        -7.15930        -0.26630
C          1.43281        -7.92627         0.03612
C          2.61742        -7.17868         0.50466
C          3.77738        -7.94105         0.75436
C          5.05138        -7.27753         1.05344
C          6.34189        -7.99038         0.63685
C          7.45665        -7.16119         0.14379
C         -6.06450        -9.13887         0.34724
C         -4.90028        -9.81814         0.34056
C         -3.60513        -9.16333         0.12938
C         -2.39947        -9.88749         0.25988
C         -1.13547        -9.23407         0.14180
C          0.07961        -9.96335         0.42274
C          1.32659        -9.36476         0.38133
C          2.55931       -10.06471         0.53869
C          3.77172        -9.36963         0.58264
C          5.02795       -10.05362         0.32875
C          6.20665        -9.39348         0.19754
O         -1.03105        -1.24638         1.87744
O         -4.83194         3.67212        -1.55881
H         -4.36226         2.99359        -2.10193
O         -5.12892        -6.64442        -1.81956
O          1.08272        -7.63024        -1.36344
O         -7.38745         5.44178         1.43637
O         -2.86151        -5.31110        -2.24639
O         -4.85909         5.55943         2.82446
H         -4.26952         6.28737         3.13553
O         -3.21998         7.98164         2.36251
O         -6.04711        -4.10316         0.84821
O          6.02762        -5.24700         2.03341
O          3.62447        -4.29024         2.39886
O         -0.53101        -4.01883        -1.71739
O          2.22797         5.74494         2.48549
O         -5.96573         0.79314         1.59240
H         -6.75983         0.35558         1.96551
O          7.89490         2.57737         0.65010
O          5.09166         4.70025        -2.26512
H          5.71673         4.12015        -2.77284
O         -2.79573        -2.76658        -1.97809
O          4.31737         4.50928         1.89580
O          5.92913        -7.86582         2.04592
O          7.97852        -1.96108         1.41561
O          6.70861        -2.37708        -1.72073
O         -4.17906         1.24319        -1.52304
O         -3.41709         8.46663        -1.19559
H         -3.41171         9.14953        -1.89913
O         -0.26632         6.05263         3.10502
H          0.62356         6.12110         3.52116
O          7.28090         3.12065        -2.96002
H          7.83232         3.37373        -3.73094
O         -7.17366        -2.70716        -2.42698
H         -6.40417        -2.14441        -2.65961
O         -5.78226         7.75768         2.38469
H         -6.53184         7.16196         2.60953
O          1.90236        -1.12128         2.37693
O          0.52762         3.12966         2.63191
O         -2.28838        -7.76390        -2.23083
H         -2.86579        -7.15571        -2.75374
O          0.07507        10.62313         2.23326
H          0.00652         9.82935         2.80381
O         -5.85862        -7.17060         1.68200
H         -6.66271        -7.38223         2.20041
H         11.56749        -1.34727        -2.04791
H         11.49049         1.08933        -2.39665
H         10.17881         3.17996        -2.43123
H          9.04854         5.44944        -1.96630
H          7.89411         7.62428        -1.65283
H          6.66707         9.75320        -1.57924
H          4.65343        11.03977        -0.96054
H          2.32226        11.12165        -0.11688
H         -0.08690        11.12467         0.23883
H         -2.51701        11.07070         0.20377
H         -4.90685        10.99073        -0.32858
H         -7.02588         9.74982        -0.51365
H         -8.10549         7.81967        -0.86016
H         -9.24390         5.49513        -1.39019
H        -10.76148         3.47434        -0.81849
H        -11.98578         1.32042        -0.88734
H        -11.95114        -1.16049        -0.89633
H        -10.74573        -3.26167        -0.65813
H         -9.53838        -5.39754        -0.52064
H         -8.28332        -7.56764        -0.15632
H         -7.01891        -9.66814         0.49194
H         -4.89702       -10.91256         0.45832
H         -2.43187       -10.95476         0.52259
H         -0.00057       -11.03441         0.66134
H          2.55891       -11.16491         0.54223
H          4.97410       -11.12418         0.08040
H          7.10316        -9.91953        -0.16334
H          8.32425        -7.68927        -0.28320
H          9.50800        -5.54434        -0.54654
H         10.47892        -3.41058        -1.45518
