         344
 CSIRO Nanostructure Databank - Neutral Graphene Oxide Data Set
C          1.22797         3.38654        -0.25975
C          0.02589         4.07481        -0.37712
C          1.17542         6.21598        -0.08994
C         -0.00757         5.47021        -0.30893
C          1.15971         7.67984        -0.01165
C         -0.04188         8.40480        -0.04592
C          1.13689        10.54662         0.03463
C         -0.05765         9.79678        -0.02609
C          1.12750        11.99777         0.08943
C         -0.06832        12.74828         0.00672
C          1.13416        14.85793         0.29175
C         -0.06375        14.13100         0.07811
C          1.14560        16.32831         0.34670
C         -0.06555        17.07672         0.13470
C          1.09842        19.23072         0.28369
C         -0.06775        18.45306         0.06935
C          1.10232        20.63839         0.19218
C         -0.06362        21.39554        -0.05823
C          1.14647        23.50349        -0.38353
C         -0.04367        22.77068        -0.30974
C          1.20541        24.92046        -0.61121
C          0.05091        25.67491        -0.87176
C          1.22534        27.80798        -0.74899
C          0.07110        27.08373        -0.97926
C          1.25956        29.24829        -0.78939
C          3.69009         3.41677        -0.01503
C          2.44059         4.09964        -0.07220
C          3.65998         6.24753         0.39409
C          2.39548         5.52133         0.02303
C          3.63311         7.72199         0.09743
C          2.39374         8.40882         0.05509
C          3.60814        10.57194         0.17255
C          2.37565         9.84534         0.07475
C          3.60015        11.99160         0.28183
C          2.35139        12.70657         0.25646
C          3.59094        14.81299         0.73461
C          2.33163        14.12230         0.41015
C          3.59172        16.33166         0.77537
C          2.32962        17.03363         0.51186
C          3.63995        19.21126         0.32744
C          2.34624        18.52672         0.75750
C          3.65627        20.58263         0.17949
C          2.39278        21.35676         0.29882
C          3.66727        23.42122        -0.65815
C          2.41596        22.82057        -0.05343
C          3.69362        24.92589        -0.45006
C          2.48573        25.60293        -0.48846
C          3.73161        27.75682        -0.74363
C          2.46252        27.09593        -0.25763
C          3.72620        29.23980        -0.91537
C          2.43047        29.94179        -0.77423
C          6.17389         3.43887        -0.19316
C          4.91742         4.13103        -0.09189
C          6.11930         6.30489        -0.47256
C          4.89520         5.53776        -0.07712
C          6.10261         7.74210        -0.01690
C          4.85823         8.43414         0.07506
C          6.08263        10.57604         0.21429
C          4.84761         9.86508         0.15569
C          6.07905        11.99993         0.28993
C          4.84180        12.70799         0.34946
C          6.08127        14.84508         0.49551
C          4.86245        14.11704         0.49983
C          6.07919        16.29520         0.52453
C          4.86937        17.03437         0.54367
C          6.12147        19.10413         0.24367
C          4.87377        18.43389         0.33486
C          6.14296        20.54196        -0.10904
C          4.89109        21.33308        -0.03118
C          6.22095        23.42272        -0.58860
C          4.92772        22.68820        -0.25611
C          6.18021        24.89552        -0.22592
C          4.96515        25.60987        -0.32044
C          6.15536        27.77987        -0.22300
C          4.98932        27.05727        -0.38403
C          6.22250        29.21597        -0.36392
C          5.00313        30.04163        -0.73507
C          8.63538         3.43509        -0.07019
C          7.39157         4.12660        -0.11931
C          8.56445         6.29472         0.04334
C          7.39293         5.57935        -0.11429
C          8.56951         7.72974         0.04370
C          7.32195         8.44028         0.07938
C          8.54703        10.59146         0.22083
C          7.31931         9.86942         0.20726
C          8.53017        11.99760         0.20287
C          7.31174        12.71762         0.28317
C          8.56083        14.87595         0.34639
C          7.31175        14.15117         0.36005
C          8.57194        16.28907         0.48086
C          7.31861        16.99637         0.50904
C          8.55635        19.16210         0.87372
C          7.32131        18.40786         0.43782
C          8.70631        20.51346         0.17943
C          7.46028        21.26111        -0.17850
C          8.63513        23.42489         0.21626
C          7.46420        22.72665        -0.09051
C          8.61228        24.87831         0.23776
C          7.39942        25.57313         0.04760
C          8.64709        27.77057        -0.00753
C          7.35851        27.06132         0.33479
C          8.66080        29.25557         0.04286
C          7.40364        29.90888        -0.17026
C         11.08678         3.44605         0.12165
C          9.85883         4.10852         0.09061
C         11.05756         6.27200        -0.29663
C          9.86223         5.59527         0.37593
C         11.05048         7.76340        -0.03808
C          9.80541         8.44961         0.07709
C         11.03497        10.57273         0.18701
C          9.81007         9.87374         0.16914
C         11.03413        12.05635         0.47364
C          9.80611        12.72004        -0.13803
C         11.00903        14.88246         0.12472
C          9.78715        14.19068         0.17757
C         11.03523        16.29416         0.29294
C          9.81933        16.99755         0.48766
C         11.07678        19.10076         0.82352
C          9.85857        18.40588         0.73271
C         11.01993        20.55433         1.32555
C          9.94953        21.27638         0.46566
C         11.09463        23.45291         0.61702
C          9.88070        22.74612         0.45809
C         11.07191        24.89479         0.50289
C          9.86750        25.56617         0.40805
C         11.07226        27.81730         0.78234
C          9.91075        27.03598         0.20955
C         11.12800        29.22640         0.20445
C          9.87298        29.91649         0.03445
C         13.51149         3.48343         0.57057
C         12.33033         4.15146         0.31038
C         13.52530         6.30668         0.13610
C         12.33634         5.59791         0.14004
C         13.51633         7.72291        -0.40265
C         12.24539         8.47093        -0.08098
C         13.50054        10.63489        -0.10162
C         12.25812         9.89204         0.03562
C         13.50341        12.03549        -0.19074
C         12.28217        12.77990         0.00373
C         13.41725        14.92308        -0.65004
C         12.24063        14.14794        -0.12025
C         13.44496        16.35880        -0.17571
C         12.29116        17.02135         0.21828
C         13.53491        19.17815         0.44487
C         12.29798        18.44435         0.51545
C         13.57705        20.57691         0.74691
C         12.39178        21.32495         1.32575
C         13.55470        23.48147         0.85070
C         12.31884        22.75502         0.80133
C         13.56635        24.87721         0.78568
C         12.37277        25.63390         0.26630
C         13.59441        27.86227         0.98618
C         12.35969        27.07409         0.68320
C         13.60461        29.20310         0.26093
C         12.33561        29.82789        -0.04648
C         16.04092         3.51729         0.59959
C         14.76073         4.23348         0.92029
C         15.98508         6.33518         0.31741
C         14.76140         5.65026         0.40869
C         15.95329         7.80845         0.31141
C         14.73858         8.51500        -0.02942
C         15.99424        10.62788        -0.30574
C         14.74556         9.90750        -0.10477
C         15.93038        12.03730        -0.58384
C         14.73382        12.74190        -0.47105
C         15.93837        14.89184        -0.50858
C         14.74137        14.19367        -0.50853
C         15.95689        16.33452        -0.05123
C         14.71161        17.11485        -0.48092
C         15.97342        19.19033         0.08339
C         14.73612        18.52080         0.06529
C         16.01322        20.58626         0.40368
C         14.78267        21.27423         0.70035
C         16.01693        23.38499         0.88367
C         14.81116        22.72711         0.90007
C         16.08819        24.84793         1.01465
C         14.79596        25.62581         1.01270
C         16.05935        27.72512         0.58458
C         14.86011        27.07900         0.75010
C         16.06781        29.24087         0.64480
C         14.79647        29.83106         0.08402
C         18.47641         3.50450         0.24372
C         17.22180         4.20643         0.38537
C         18.46874         6.36077         0.10054
C         17.22937         5.65558         0.31407
C         18.51525         7.77104        -0.06817
C         17.29828         8.57454         0.13840
C         18.42603        10.53853        -1.01375
C         17.20696         9.93051        -0.36224
C         18.44680        12.04776        -0.68093
C         17.14824        12.75100        -1.12470
C         18.38469        14.93216        -0.86045
C         17.19118        14.22654        -0.76168
C         18.42978        16.37699        -0.64576
C         17.22322        17.08840        -0.39929
C         18.43320        19.22560        -0.22683
C         17.21442        18.49770        -0.21784
C         18.46498        20.57766         0.17593
C         17.25369        21.25140         0.46251
C         18.55666        23.41895         0.62180
C         17.31723        22.64231         1.01923
C         18.56163        24.78533         0.57746
C         17.26469        25.51258         0.33355
C         18.49992        27.67844         0.20569
C         17.31234        27.01110         0.48143
C         18.46670        29.11066        -0.09522
C         17.31110        29.83542         0.05111
C         19.65059         4.18175         0.07094
C         20.89919         6.30248        -0.24131
C         19.68215         5.61357        -0.01640
C         20.93072         7.67431        -0.40228
C         19.73329         8.44866        -0.35768
C         20.90768        10.63613        -0.67253
C         19.72587         9.86839        -0.59580
C         20.93065        11.97175        -1.04604
C         19.69056        12.71640        -1.24543
C         20.87260        15.02680        -1.30219
C         19.63798        14.25534        -1.29134
C         20.85880        16.37300        -1.05361
C         19.65784        17.07230        -0.75497
C         20.92017        19.17264        -0.10025
C         19.69490        18.58493        -0.75176
C         20.93767        20.45572         0.31411
C         19.73961        21.27607         0.32468
C         21.02466        23.41530         0.40157
C         19.78852        22.65793         0.50417
C         21.05462        24.76588         0.45123
C         19.82956        25.58711         0.75866
C         20.86503        27.60903        -0.38174
C         19.75969        26.96378         0.11322
C         20.80697        28.98449        -0.78573
C         19.67069        29.71878        -0.62037
O          2.49021        22.40141         1.34086
O         15.57285        25.33936         2.26765
O          3.56563        15.54164         2.02454
O          9.45120        27.32863        -1.16068
O          9.74850        20.61831        -0.84127
O         16.67749         8.37668         1.45158
O         19.51240        13.40726        -2.52197
O          3.72489        28.32752        -2.08331
O         10.55140        20.52689         2.64996
O          6.82298        20.75852        -1.42537
O          9.95581        12.59513        -1.58625
H          9.24597        13.11898        -2.01261
O          6.30383        23.37977        -2.06795
H          6.53525        22.44060        -2.28767
O         10.93512        12.21252         1.91456
H         11.70539        11.76655         2.32419
O         19.77926        18.96831        -2.17800
H         18.98481        18.60379        -2.62333
O          6.08850         6.37127        -1.96066
H          6.98456         6.64043        -2.25738
O         19.88405        25.88072         2.20260
H         19.78898        25.02733         2.67808
O         13.20463        15.00315        -2.10775
H         13.91477        15.59598        -2.45681
O         14.79232        17.23440        -1.94715
H         14.10596        17.87618        -2.22977
O         13.52011         7.56021        -1.87571
H         13.55467         8.45959        -2.26799
O         10.94905         6.09036        -1.73403
H         11.76788         6.47858        -2.12656
O         18.50651        12.18618         0.75839
H         19.18990        11.56922         1.09726
O          2.32482        18.64469         2.22691
H          2.96613        17.99567         2.59014
O          3.73858         6.17415         1.88612
H          3.60681         5.23223         2.13025
O         15.91393        16.27855         1.40777
H         16.68620        15.75802         1.71357
O         12.53345        25.65529        -1.22087
H         11.70149        26.01913        -1.59859
O          4.79071        31.05139         0.26539
H          4.74494        30.61645         1.14159
O          3.54953        23.21024        -2.09866
H          4.43390        23.43662        -2.48371
O         10.78305        27.95791         2.21432
H         11.63893        28.18710         2.65342
O          2.48989        27.28704         1.20163
H          1.71170        26.82119         1.57527
O          7.25974        27.19497         1.79287
H          6.43408        26.75213         2.08195
O         17.50531        22.47783         2.47879
H         16.67937        22.08795         2.83945
O         17.01111        12.66068        -2.57564
H         17.80569        13.11754        -2.95932
O         12.76136        21.55269         2.71264
H         11.93889        21.26973         3.21916
O         16.97071        25.29192        -1.09580
H         17.68884        25.70758        -1.61892
O         16.05168        29.57588         2.09167
H         16.86902        29.19866         2.48369
O          8.25522        19.41433         2.26767
H          9.09313        19.81262         2.67675
O         18.31979        10.34327        -2.44605
H         17.65495        11.00012        -2.78060
O         14.75797         4.35435         2.41448
H         15.50902         4.94012         2.65369
O         10.07493         5.76344         1.80586
H          9.34164         5.31684         2.27772
O         13.57121        28.20846         2.42245
H         14.37767        28.76639         2.58083
H          1.25115         2.28968        -0.32837
H         -0.90920         3.51929        -0.53507
H         -0.97297         5.97996        -0.42601
H         -1.00413         7.87715        -0.08684
H         -1.02974        10.30689        -0.04874
H         -1.03026        12.23717        -0.13247
H         -1.02251        14.65740        -0.01387
H         -1.01330        16.54775        -0.02668
H         -1.01334        18.95746        -0.17434
H         -1.03993        20.89193        -0.06537
H         -1.00535        23.27114        -0.49046
H         -0.90959        25.16230        -1.01651
H         -0.85487        27.60942        -1.25579
H          0.30070        29.78852        -0.82467
H          3.70276         2.31831        -0.06307
H          2.43486        31.04083        -0.74742
H          6.17285         2.33941        -0.21823
H          5.21788        30.58954        -1.69052
H          8.63526         2.33942        -0.18131
H          7.38894        31.00664        -0.24947
H         11.11300         2.34796         0.03932
H          9.89484        31.00786        -0.11367
H         13.51488         2.38681         0.66150
H         12.35687        30.85313        -0.44974
H         16.06520         2.42090         0.69618
H         14.83682        30.83162        -0.37421
H         18.46953         2.40607         0.29554
H         17.29887        30.90127        -0.22368
H         20.59826         3.63115        -0.02238
H         21.83163         5.72338        -0.31178
H         21.89164         8.16565        -0.60636
H         21.87356        10.14707        -0.47629
H         21.89646        12.46601        -1.21933
H         21.80211        14.53109        -1.61232
H         21.79858        16.93482        -1.14128
H         21.84061        18.57437        -0.04309
H         21.86895        20.88008         0.71758
H         21.96339        22.86717         0.23338
H         22.02503        25.27970         0.38687
H         21.83221        27.09276        -0.45148
H         21.71674        29.45364        -1.18589
H         19.64878        30.78751        -0.87789
