         762
 CSIRO Nanostructure Databank - Neutral Graphene Oxide Data Set
C         23.37607        25.28546        -3.91250
C         22.22108        26.04279        -4.08567
C         23.36992        28.02559        -3.25394
C         22.20777        27.39259        -3.74213
C         23.37109        29.42573        -2.90548
C         22.15327        30.17362        -2.81560
C         23.32362        32.24230        -2.20606
C         22.12579        31.48522        -2.41179
C         23.31702        33.56266        -1.76153
C         22.10077        34.26378        -1.43367
C         23.28003        36.28109        -0.46696
C         22.07008        35.48993        -0.85345
C         23.36146        37.66706        -1.27885
C         22.08724        38.45728        -1.29751
C         23.16858        40.52114        -0.51247
C         22.02804        39.78235        -1.00510
C         23.13299        41.94108        -0.28833
C         21.95024        42.71144        -0.50996
C         22.99988        44.68214         0.49917
C         21.88500        44.02228        -0.10391
C         22.83019        45.88945         1.23725
C         21.57794        46.17738         1.80443
C         22.50602        47.98491         3.12940
C         21.41740        47.17115         2.76559
C         25.72568        23.63621        -3.31557
C         25.73931        25.08625        -3.15629
C         24.55856        25.87095        -3.40999
C         25.77906        27.90187        -2.66145
C         24.57832        27.27183        -3.11724
C         25.79499        29.32420        -2.44954
C         24.59525        30.06666        -2.61244
C         25.90810        32.19255        -2.05194
C         24.60321        31.53700        -2.47692
C         25.84154        33.53308        -1.46437
C         24.60083        34.36078        -1.72233
C         25.81502        36.39539        -0.89496
C         24.59651        35.52833        -0.72131
C         25.71793        37.70222        -0.43727
C         24.50051        38.44092        -0.66499
C         25.45508        40.40489         0.49143
C         24.34918        39.75928        -0.23903
C         25.48572        41.89018         0.57369
C         24.28697        42.65371         0.16506
C         25.41122        44.60814         1.25203
C         24.25721        44.00616         0.55483
C         25.29824        45.97886         1.95317
C         24.03697        46.78157         1.46226
C         25.67839        49.11520         1.90777
C         23.71707        47.86157         2.46603
C         25.72225        50.48070         1.59753
C         28.19167        23.57855        -3.08693
C         26.85319        22.90125        -3.25322
C         28.03146        24.82264        -2.20849
C         26.89834        25.70514        -2.68443
C         28.14820        27.69223        -1.90206
C         26.94886        27.10507        -2.43527
C         28.07847        29.09488        -1.45072
C         26.97255        29.95793        -1.91080
C         28.18294        31.96552        -1.05999
C         27.03694        31.33115        -1.67149
C         28.14083        33.33771        -0.64985
C         26.90974        34.08511        -0.81045
C         27.78524        35.97061         0.76097
C         26.65613        35.40202        -0.12504
C         27.95134        37.49337         0.59515
C         26.83625        38.25812         0.28970
C         27.97406        40.38048         1.08002
C         26.71929        39.64218         0.74618
C         28.10626        41.87006         0.70751
C         26.77725        42.68550         0.49269
C         27.74338        44.55310         2.10203
C         26.59668        43.93246         1.33807
C         27.79231        46.02312         1.71007
C         26.63377        46.75213         1.73646
C         27.85521        48.80006         0.95633
C         26.69814        48.21131         1.52524
C         27.89516        50.16761         0.59754
C         26.79704        50.99744         0.88854
C         30.41758        20.49771        -2.49806
C         29.34025        21.28096        -2.79520
C         30.40969        23.33477        -2.00249
C         29.30354        22.69647        -2.54207
C         30.47630        24.77153        -1.83560
C         29.34233        25.54760        -1.99180
C         30.58466        27.62000        -1.31653
C         29.33065        26.95862        -1.69579
C         30.62721        29.04166        -1.05756
C         29.35553        29.77237        -0.97120
C         30.56836        31.88777        -0.46990
C         29.37553        31.23785        -0.86737
C         30.52457        33.25351        -0.05388
C         29.26774        33.92720        -0.04292
C         30.45241        35.99276         0.86457
C         29.14954        35.23539         0.64635
C         30.43493        37.46977         0.96174
C         29.19822        38.17143         0.91322
C         30.42180        40.28964         1.20384
C         29.22170        39.59228         1.00735
C         30.33902        41.68411         1.74239
C         29.12316        42.52850         1.61753
C         30.26843        44.58338         2.64196
C         29.07703        43.82757         2.01578
C         30.36538        45.97339         1.93493
C         29.10979        46.60196         1.34049
C         30.33115        48.81588         0.90552
C         29.08795        47.97747         0.64754
C         30.37243        50.12429         0.43153
C         29.12981        50.76915         0.07340
C         30.39089        52.66859        -0.80850
C         29.16072        51.99179        -0.56679
C         33.05302        18.95219        -1.40863
C         32.92977        20.27684        -2.10614
C         31.62398        21.04470        -1.85824
C         32.89587        23.28457        -1.69897
C         31.60451        22.55208        -1.64496
C         32.98492        24.62962        -1.40046
C         31.67967        25.36649        -1.13269
C         33.05627        27.59414        -1.18965
C         31.76620        26.87942        -1.27556
C         33.07275        29.01946        -0.79874
C         31.81866        29.72953        -0.76123
C         32.97073        31.79773         0.00621
C         31.79861        31.14283        -0.41358
C         32.98262        33.19502         0.31925
C         31.75099        33.92742         0.30620
C         32.95460        36.03069         0.78501
C         31.74284        35.32224         0.57780
C         32.94245        37.46754         1.01567
C         31.66508        38.17322         1.02989
C         32.91061        40.34454         1.20633
C         31.64196        39.58872         1.16544
C         32.87483        41.78225         1.62458
C         31.59208        42.38882         2.07556
C         32.76610        44.33616         2.86505
C         31.58722        43.82633         2.43692
C         32.77870        46.50466         2.62916
C         31.57462        46.85506         2.02528
C         32.83901        49.00527         1.37744
C         31.49973        48.24426         1.54423
C         32.82612        50.24459         0.60256
C         31.62249        50.85307         0.25934
C         32.88131        52.98618        -0.37107
C         31.59546        52.16027        -0.37629
C         32.93461        54.17913        -1.29440
C         35.52761        18.97362        -1.63417
C         34.25822        18.34018        -1.31973
C         35.52620        20.43157        -1.98733
C         34.18818        21.11550        -1.95360
C         35.85109        23.44885        -1.62938
C         34.01998        22.46870        -2.11716
C         35.56433        24.60703        -0.81615
C         34.19495        25.31758        -0.73614
C         35.56109        27.52228        -0.54000
C         34.35133        26.80809        -1.04637
C         35.51886        28.92305        -0.32020
C         34.25847        29.62796        -0.38272
C         35.49815        31.72881         0.48467
C         34.18945        30.98880         0.18848
C         35.47300        33.19338         0.60586
C         34.21055        33.89068         0.62861
C         35.41108        36.01313         1.19675
C         34.17600        35.29852         0.82848
C         35.42282        37.49462         1.19665
C         34.15435        38.17510         1.18875
C         35.38150        40.29997         1.49281
C         34.19138        39.61130         1.31480
C         35.39479        41.78294         1.58229
C         34.14332        42.40748         2.08654
C         35.33348        44.68162         2.42623
C         34.12812        43.80034         2.62744
C         35.27538        46.12458         2.20976
C         34.08190        46.91992         2.17795
C         35.39819        48.77590         0.97895
C         34.06312        48.14719         1.37930
C         35.41503        50.22531         0.59720
C         34.11937        50.92616         0.37758
C         35.36339        52.55517        -1.17913
C         34.08752        52.08340        -0.56652
C         35.40641        53.91676        -1.87908
C         34.07199        54.63828        -1.83393
C         37.90559        16.11799        -1.22043
C         36.74619        16.81527        -1.42726
C         38.00100        18.93151        -1.17131
C         36.71422        18.25047        -1.47505
C         38.03464        20.42170        -1.23816
C         36.85784        21.18262        -1.79669
C         38.13939        23.26407        -0.94835
C         36.93634        22.62106        -1.42513
C         38.12113        24.65323        -0.78628
C         36.87144        25.35587        -0.49600
C         37.99971        27.54114        -0.25736
C         36.79625        26.83085        -0.40248
C         37.98714        28.94157        -0.05940
C         36.74030        29.63612        -0.03051
C         37.97751        31.77626         0.18491
C         36.76169        31.04312         0.18768
C         37.94185        33.19575         0.38859
C         36.71291        33.85589         0.66322
C         37.97191        36.04716         0.91672
C         36.74094        35.27134         1.07300
C         37.90380        37.50075         1.04889
C         36.62265        38.19190         1.28493
C         37.83616        40.32379         1.80415
C         36.65869        39.62595         1.50937
C         37.81724        41.72690         2.39860
C         36.62516        42.53363         1.93512
C         37.80308        44.67633         2.17278
C         36.54408        43.99190         2.27449
C         37.78483        46.06791         2.05916
C         36.54560        46.79983         1.92017
C         37.80761        49.06886         1.52447
C         36.59068        48.14903         1.51171
C         37.86649        49.85281         0.18337
C         36.65657        50.75005        -0.03481
C         37.92329        52.57445        -1.17621
C         36.65353        51.88795        -0.79272
C         37.90410        54.09188        -1.36072
C         36.57619        54.74939        -1.38454
C         37.64748        56.84171        -0.75439
C         36.48597        56.07588        -1.09412
C         40.37572        14.58700        -0.68789
C         40.37149        15.95327        -0.71876
C         39.18458        16.75556        -1.00928
C         40.49966        18.83559        -0.70050
C         39.26017        18.14702        -1.04040
C         40.59477        20.30658        -0.92865
C         39.36475        21.12301        -1.28214
C         40.61580        23.21958        -0.74872
C         39.40259        22.56667        -1.00819
C         40.62061        24.65410        -0.52128
C         39.37677        25.39656        -0.77992
C         40.50551        27.50802         0.10251
C         39.30749        26.87277        -0.45614
C         40.43952        28.91000         0.34023
C         39.22638        29.64444         0.14355
C         40.48562        31.74887         0.32327
C         39.23335        31.06553         0.18178
C         40.54569        33.21955         0.14937
C         39.17083        33.98545         0.21977
C         40.42396        36.08673         0.84770
C         39.20472        35.41314         0.64983
C         40.42615        37.41812         1.49623
C         39.19252        38.24154         1.33924
C         40.39991        40.32110         2.29087
C         39.10574        39.58628         1.98619
C         40.37840        41.81229         2.31421
C         39.10784        42.51932         2.26132
C         40.32122        44.67627         2.30732
C         39.05606        43.90234         2.21190
C         40.30706        46.02477         1.61740
C         39.06586        46.81436         2.00495
C         40.36344        48.88170         1.28443
C         39.09118        48.28617         1.73211
C         40.39015        50.17762         0.69993
C         39.17635        50.61391        -0.03806
C         40.50730        52.72996        -0.86660
C         39.21091        51.91167        -0.77812
C         40.33862        54.23268        -0.94678
C         39.12322        54.89784        -1.03553
C         40.00632        57.20081        -0.21917
C         38.92732        56.32488        -0.74016
C         39.76329        58.18686         0.76095
C         42.64039        14.45637         0.23165
C         41.56073        13.84692        -0.30398
C         42.62136        15.94775         0.48816
C         41.70770        16.64990        -0.52846
C         42.77264        18.79685         0.34564
C         41.58803        18.12623        -0.24254
C         42.86818        20.28601         0.14640
C         41.77648        21.05718        -0.48670
C         43.08218        23.17662        -0.25296
C         41.82333        22.43918        -0.54863
C         43.01205        24.63701         0.06306
C         41.72258        25.35529        -0.04858
C         42.87641        27.43196         0.77859
C         41.68978        26.76399         0.26135
C         42.80955        28.84737         0.98606
C         41.63579        29.59342         0.71180
C         42.94364        31.71820         0.69271
C         41.63954        31.02959         0.65585
C         43.01278        33.23643         0.57532
C         41.75731        33.96305         0.48228
C         43.01872        36.18577         0.90566
C         41.72284        35.43089         0.60315
C         43.00359        37.54101         1.51306
C         41.70874        38.16868         1.81542
C         42.89912        40.30345         2.16716
C         41.70300        39.63281         2.04430
C         42.86576        41.75020         2.47836
C         41.58252        42.47810         2.36225
C         42.91264        44.63097         2.08313
C         41.64244        43.94617         2.44356
C         42.86390        46.09125         1.89399
C         41.58290        46.81081         1.77619
C         42.85403        48.90868         1.35115
C         41.57182        48.17591         1.50640
C         42.83887        50.39097         1.09056
C         41.54432        50.94661         0.67912
C         42.75526        53.18499         0.37388
C         41.51325        52.35482         0.23067
C         42.75324        54.49887        -0.31986
C         41.61796        54.91483        -0.96322
C         42.44513        57.54360         0.12933
C         41.35096        57.02142        -0.58164
C         42.15709        58.53433         1.08606
C         40.82633        58.87855         1.34900
C         45.19705        15.91108         0.68346
C         43.99068        16.62345         0.53620
C         45.23835        18.70950         0.94503
C         44.03290        18.02832         0.59579
C         45.22800        20.16147         0.99073
C         44.21834        20.89776         0.21126
C         45.41870        23.06004         0.84126
C         44.30392        22.39905         0.15130
C         45.30370        24.47091         1.25363
C         44.05221        25.24121         0.94658
C         45.25429        27.31099         1.66439
C         44.03772        26.70006         1.09466
C         45.23009        28.79458         1.83279
C         43.96303        29.55052         1.56700
C         45.35602        31.73913         1.58211
C         44.05060        31.04451         1.42686
C         45.40876        33.14156         1.56873
C         44.29046        33.92045         0.97487
C         45.43056        36.05690         1.77954
C         44.30647        35.41764         1.06043
C         45.42856        37.46599         1.92558
C         44.18049        38.20170         1.80116
C         45.40287        40.30946         2.25251
C         44.19937        39.63012         2.09813
C         45.44599        41.77762         2.28919
C         44.15535        42.52757         2.42190
C         45.29648        44.52261         1.38015
C         44.11724        43.95324         2.02329
C         45.14141        45.79189         0.77023
C         44.08435        46.72525         1.20780
C         45.26349        48.89020         0.61784
C         43.91681        48.13078         0.60727
C         45.24543        50.38721         0.42043
C         44.07160        51.10011         0.62971
C         45.30890        53.20740         0.32722
C         44.08551        52.51067         0.51008
C         45.16870        54.70289         0.49101
C         43.83898        55.39620         0.15232
C         44.91659        57.61461         0.27214
C         43.77535        56.89378         0.04925
C         46.40633        16.57400         0.85772
C         47.79662        18.61288         1.08511
C         46.47598        17.97670         1.02479
C         48.01061        19.85558         1.74103
C         46.19262        20.91314         1.62771
C         47.69283        22.96586         1.87760
C         46.43093        22.31579         1.42973
C         47.76821        24.43757         1.70836
C         46.57160        25.16911         1.55412
C         47.77987        27.25383         1.78930
C         46.56301        26.57865         1.61730
C         47.78679        28.73001         1.67215
C         46.51248        29.52504         1.61319
C         47.77782        31.65467         1.87075
C         46.53763        30.99627         1.78127
C         47.82572        33.07897         2.03071
C         46.60279        33.81436         1.95521
C         47.54234        35.96192         2.86277
C         46.53171        35.25631         2.18599
C         47.62233        37.34784         2.82340
C         46.59533        38.14477         2.35154
C         47.95565        40.24673         1.74575
C         46.74414        39.63349         2.52098
C         47.84574        41.55625         1.33929
C         46.68377        42.42928         1.69839
C         47.52094        44.35332         0.30964
C         46.49561        43.78692         1.09986
C         47.35274        45.61613        -0.32881
C         46.07676        46.16738        -0.20666
C         47.41642        48.80677        -0.62744
C         46.16577        48.32275        -0.41701
C         47.58987        50.23900        -0.41526
C         46.45755        51.03809         0.03875
C         47.85110        53.04906        -0.19667
C         46.52732        52.47002         0.08182
C         48.24870        54.34825         0.21866
C         46.30346        55.63220         0.63628
C         46.18100        56.98792         0.53932
C         50.11052        18.76883         0.31548
C         48.91967        18.09462         0.35801
C         50.28462        20.07088         0.97789
C         49.07936        20.72575         1.50241
C         50.29201        22.98537         1.58797
C         49.06908        22.16728         1.85760
C         50.27579        24.41323         1.72561
C         49.01509        25.11941         1.80693
C         50.26946        27.25480         1.94542
C         49.01663        26.54479         1.83313
C         50.21895        28.67986         2.31936
C         48.99907        29.46341         2.03069
C         50.24208        31.54389         2.04306
C         48.98650        30.84392         1.95915
C         50.24704        32.90029         1.42462
C         49.12652        33.74396         1.92271
C         50.66785        35.82891         1.89221
C         49.44003        35.00129         2.38863
C         50.55861        37.36921         1.52197
C         49.54001        38.22733         2.00863
C         50.24613        40.06752         0.64895
C         49.21520        39.49380         1.45556
C         50.31313        41.58302         0.66992
C         48.90813        42.16426         0.48284
C         49.84109        44.25433        -0.73781
C         48.71174        43.54569        -0.04454
C         49.69771        45.64490        -1.29874
C         48.40025        46.37722        -1.09531
C         49.73184        48.59981        -1.53463
C         48.44485        47.91865        -1.23399
C         49.75283        49.99533        -1.57473
C         48.71175        50.83912        -0.99616
C         50.08192        52.89710        -1.28742
C         48.86494        52.27496        -0.86546
C         50.37873        54.20456        -0.90178
C         49.48707        54.90674        -0.09488
C         52.68607        20.40439         0.08352
C         51.55392        20.87869         0.92021
C         52.68688        23.09595         1.07513
C         51.48841        22.34962         1.19578
C         52.69901        24.47840         1.32733
C         51.49579        25.16772         1.63204
C         52.76897        27.39523         1.83422
C         51.50796        26.61311         1.84042
C         52.79967        28.78267         2.04991
C         51.53609        29.42904         2.50317
C         53.10373        31.93340         1.57055
C         51.35762        30.89279         2.45950
C         52.77531        33.06161         0.78724
C         51.38735        33.61428         0.78508
C         50.99380        35.79452        -0.72578
C         51.05591        35.08173         0.60586
C         52.72436        37.19232         0.13593
C         51.49441        37.94122         0.59410
C         52.33689        39.97226        -0.72587
C         51.36945        39.31676         0.23249
C         52.44312        41.44215        -0.87597
C         51.41515        42.24683        -0.18731
C         52.12996        44.20242        -1.68436
C         51.21007        43.66437        -0.67153
C         52.06218        45.61701        -1.96461
C         50.93051        46.38819        -1.67639
C         52.01710        48.46560        -2.45655
C         50.89485        47.81350        -1.89917
C         52.01188        49.85923        -2.72099
C         50.84739        50.64850        -2.31074
C         52.36808        52.67924        -2.46466
C         51.02547        52.17438        -2.17854
C         53.84925        21.06705         0.10569
C         55.27805        23.02654         0.96807
C         53.95942        22.34095         0.85122
C         55.28326        24.52380         1.03094
C         53.95545        25.25243         1.16238
C         55.24318        27.30211         1.46698
C         54.00323        26.67573         1.53521
C         55.30704        28.78287         1.47587
C         54.07226        29.58114         1.78322
C         55.15382        31.55025         0.49008
C         54.09148        30.99657         1.23125
C         55.04587        32.86723        -0.00679
C         53.79437        33.52837        -0.05231
C         54.91446        35.37744        -1.48551
C         53.64862        34.62236        -1.04459
C         54.75767        36.91709        -1.50747
C         53.55578        37.70031        -1.02736
C         54.68518        39.87030        -1.83262
C         53.49398        39.17948        -1.30171
C         54.54373        41.21939        -2.23119
C         53.34210        41.99311        -1.81341
C         53.89111        44.05038        -3.25447
C         53.13838        43.39408        -2.20651
C         54.18216        45.38661        -3.27697
C         53.29206        46.24956        -2.48608
C         54.17090        48.31107        -3.76631
C         53.24353        47.72859        -2.78383
C         54.17431        49.68910        -3.91634
C         53.13822        50.49487        -3.28507
C         53.29621        51.90942        -3.10869
C         57.69284        23.09347         0.71714
C         56.54010        22.45855         0.43262
C         57.73466        24.35568         1.46744
C         56.54581        25.20175         1.39805
C         57.74658        27.39685         1.48445
C         56.51118        26.60009         1.46285
C         57.76680        28.69863         0.76093
C         56.42691        29.35859         0.64189
C         57.66255        31.57340         0.23669
C         56.40153        30.79277         0.23084
C         57.50207        33.03686         0.17831
C         56.24285        33.60293        -0.37034
C         57.43961        35.60887        -1.25202
C         56.18601        34.86799        -0.86862
C         57.23254        37.10701        -1.43194
C         56.01858        37.69998        -1.69766
C         57.09747        39.83393        -2.33525
C         55.92905        39.14168        -1.98237
C         57.02518        41.23275        -2.65825
C         55.72225        41.83162        -2.81827
C         56.74055        43.91475        -3.79062
C         55.68331        42.99871        -3.61855
C         56.59530        45.28392        -4.20142
C         55.23231        45.94753        -4.19892
C         56.32699        48.14867        -5.06852
C         55.14716        47.44339        -4.48020
C         56.24631        49.60725        -5.21775
C         55.21070        50.31971        -4.71473
C         58.99375        25.86050         3.08739
C         58.86828        24.64180         2.21947
C         60.19597        27.67984         2.02747
C         58.87941        27.00859         2.12663
C         60.29982        29.01214         1.31416
C         59.02843        29.55366         0.71021
C         60.07061        31.88297         0.72016
C         58.88994        31.03504         0.56989
C         60.03467        33.24288         0.38495
C         58.73362        33.89429         0.15905
C         59.81610        36.08097        -0.34028
C         58.63889        35.23439        -0.41382
C         59.75815        37.43887        -1.03523
C         58.49952        37.79919        -1.77637
C         59.67737        39.96754        -2.56017
C         58.41179        39.16027        -2.41093
C         59.54124        41.43754        -2.85680
C         58.16560        41.98131        -2.97649
C         59.28576        44.24407        -3.48816
C         58.06727        43.32176        -3.55894
C         59.03607        45.68134        -3.73804
C         57.76062        46.09849        -4.26998
C         58.88666        48.31489        -4.78094
C         57.72073        47.44390        -4.87837
C         60.36774        26.05939         3.68150
C         61.02607        27.08394         3.11031
C         61.37641        29.97490         1.60090
C         61.28189        31.27955         1.25321
C         61.18699        34.11386         0.32812
C         61.08968        35.43932         0.03296
C         60.98290        38.19620        -1.39219
C         60.92831        39.38225        -2.02428
C         60.59097        42.41895        -2.47866
C         60.43967        43.73768        -2.70907
C         60.07127        46.59427        -3.57266
C         59.98707        47.92086        -4.07527
O         59.53493        37.39426         0.40496
O         49.92080        35.20533        -0.37978
O         56.98955        47.48321        -6.15125
O         43.28561        32.32259        -0.57537
O         37.78832        19.80709         0.05576
O         43.92309        46.77729         2.64550
O         52.26689        39.39568        -2.08266
O         29.97177        45.72088         0.53410
O         43.55432        42.18105         3.71027
O         54.61190        46.44449        -5.42576
O         57.87272        33.74137         1.41464
O         41.64278        56.14546        -1.63975
O         39.41620        50.64738        -1.49979
O         51.89736        43.42373         0.57440
O         50.66255        41.75689         2.02309
O         53.95751        47.19593        -1.57917
O         28.38039        29.19954        -0.01529
O         42.50928        36.16398        -0.45948
O         34.88264        51.13629         1.62136
O         24.62940        48.79578         2.77222
O         50.46142        32.80659        -0.02744
O         54.74668        22.29283         2.11968
O         34.72841        31.05324         1.54798
O         40.96522        44.58040         3.59620
O         44.76301        34.75317        -0.15193
O         59.88003        40.47965        -3.92351
O         48.87154        37.85664         3.18603
O         50.36529        51.57705        -3.33675
O         52.62405        34.73659        -1.71405
O         39.84168        33.71800        -1.03886
O         34.42562        51.67643        -1.92256
O         39.48534        26.41130        -1.85070
O         27.14396        39.87698         2.14819
O         25.49012        32.18087        -3.47437
O         60.77165        27.77470         0.68742
O         47.18923        29.13324         0.36561
O         48.38816        42.33825        -0.86658
O         49.50316        44.46460        -2.15080
O         50.83776        28.84902         3.65385
O         44.21385        24.57044         2.26409
O         45.12043        27.95290         3.01297
O         47.98274        47.04752        -2.32113
O         33.81045        25.24540         0.62361
O         35.04623        23.20626        -2.72767
O         39.22031        47.75844         3.11087
O         42.45026        19.73289         1.44266
O         36.20161        42.40326         0.52812
O         36.42601        20.77191        -3.12079
O         32.93205        41.45267         0.20968
O         54.60184        25.05424        -0.15643
O         45.73497        47.18355        -1.10450
O         28.81467        41.82433        -0.51642
O         47.50769        55.12282         1.10828
O         44.72806        21.53704        -0.98760
O         34.29490        42.63196         3.52599
O         33.93171        27.25557        -2.35987
O         52.44960        31.69242         2.77080
O         55.13689        29.39618         2.79740
O         56.13374        29.71508        -0.74171
O         32.09635        49.11144         2.60981
O         25.28561        35.07286         0.54761
O         43.58711        30.45368         2.68239
O         44.17523        55.01087         1.53545
O         34.62179        47.96503         0.03806
O         59.01071        43.47118        -4.68943
O         48.65336        35.38422         3.49213
O         43.12410        49.81524         2.44463
O         38.05747        53.15602        -2.49740
O         40.96900        37.39475         2.85697
O         40.24342        20.64484        -2.33594
O         53.23591        36.29145         0.80281
O         29.78729        35.25109         1.96636
O         39.61483        39.67423         3.36476
O         58.54946        37.94662        -3.22951
O         53.60104        37.12661        -2.37914
O         36.08642        35.46964         2.38548
O         48.34899        22.50040         3.07751
O         46.98400        20.28435         2.59266
O         38.69589        38.22319        -0.01307
O         54.46649        43.25168        -4.24228
O         51.34773        20.02933         2.09044
O         41.71369        53.18917         1.42712
O         46.46419        42.38545         3.15777
O         36.14734        24.56739         0.50577
O         58.56834        28.78409        -0.44554
O         43.47882        24.18777        -1.25467
O         31.45998        21.60875        -0.52801
O         32.75214        45.51491         3.60667
O         30.88589        41.63939         3.13377
O         25.09070        41.10991         1.73958
O         27.39354        44.49643         3.52693
H         28.22195        44.70858         4.03216
O         24.34730        47.41841         0.19939
H         24.53893        46.71591        -0.45821
O         45.88984        48.64067         1.90606
H         45.25938        48.93481         2.60290
O         42.02551        16.15193         1.79524
H         42.61092        15.75228         2.47100
O         28.62477        24.02721        -4.40162
H         28.73790        23.23912        -4.97256
O         24.77156        34.91837        -3.05213
H         24.93258        34.15531        -3.65605
O         27.63013        24.33835        -0.89394
H         27.79515        25.04694        -0.23701
O         40.17767        45.69811         0.19791
H         40.13400        46.53348        -0.31524
O         32.87485        19.97381        -3.54266
H         33.74705        19.60825        -3.80494
O         27.32736        35.80967         2.11428
H         28.12274        35.81307         2.69620
O         25.07032        45.78929         3.35589
H         25.81460        45.22823         3.70324
O         30.03499        44.78830         4.05386
H         30.33144        43.98225         4.52890
O         33.02015        53.50250         0.98420
H         32.18658        53.95465         1.22968
O         37.68153        50.02941         2.58566
H         37.93615        49.58158         3.42248
O         23.65808        37.28366        -2.63893
H         23.77800        38.09678        -3.17094
O         23.18158        36.61522         0.92080
H         23.97211        36.24280         1.37726
O         51.69389        35.64796         2.87446
H         51.42885        36.12464         3.68828
O         43.35225        48.05638        -0.71762
H         43.99549        47.60337        -1.31437
O         57.78232        35.12371        -2.59990
H         56.93553        35.09960        -3.11358
O         35.63424        53.66589        -3.28680
H         35.12811        52.85505        -3.51542
O         31.31430        25.21867         0.27145
H         32.19549        25.18783         0.77040
O         29.03726        47.71768        -0.78129
H         29.58023        46.91230        -0.94568
O         59.95910        23.85610         2.20616
H         59.87612        23.14339         1.54212
O         37.79951        48.81429        -0.82005
H         38.09576        49.21681        -1.67022
O         26.80191        43.16409        -0.87205
H         27.68928        42.84282        -1.22410
O         47.00709        39.84064         3.93035
H         47.04866        40.81637         4.07919
O         55.04448        35.03997        -2.90507
H         54.20629        35.33901        -3.33107
O         42.40785        16.57243        -1.80922
H         41.82592        16.95455        -2.49962
O         37.61596        41.54058         3.82921
H         38.33539        40.94280         4.14778
O         41.18824        52.32749        -2.08418
H         40.51512        52.24917        -2.79420
H         23.35376        24.22082        -4.17790
H         21.31227        25.57138        -4.48379
H         21.28085        27.96414        -3.87956
H         21.19686        29.66650        -2.99706
H         21.15034        31.97268        -2.28416
H         21.14054        33.75986        -1.61779
H         21.09555        35.92120        -0.57913
H         21.18869        37.95360        -1.68490
H         21.06857        40.30439        -1.13070
H         21.06030        42.24844        -0.95660
H         20.94863        44.58016        -0.24493
H         20.72675        45.52243         1.57453
H         22.38297        48.78416         3.87117
H         20.44186        47.31790         3.24758
H         24.76620        23.12894        -3.48713
H         24.89579        51.12699         1.91952
H         26.79827        21.81317        -3.40300
H         26.81960        52.06438         0.63095
H         30.43610        19.45111        -2.83599
H         28.48254        20.81447        -3.30152
H         30.34739        53.65131        -1.29911
H         28.22748        52.49114        -0.86210
H         32.14389        18.42960        -1.07750
H         32.01792        54.77896        -1.41181
H         34.29715        17.33494        -0.87461
H         34.02527        55.55008        -2.45063
H         37.85735        15.02083        -1.22050
H         35.82109        16.25159        -1.61190
H         37.49563        57.90056        -0.50397
H         35.51336        56.58688        -1.12225
H         39.47418        14.00569        -0.92675
H         38.73853        58.39177         1.10072
H         43.47612        13.84767         0.60714
H         41.54088        12.75228        -0.41077
H         42.96844        58.99414         1.66715
H         40.61079        59.64411         2.10695
H         45.20293        14.81394         0.63167
H         44.87158        58.71258         0.28710
H         47.32966        15.98161         0.92515
H         47.05589        57.61872         0.74173
H         50.96877        18.31599        -0.19910
H         48.82103        17.14070        -0.17940
H         51.31781        54.68359        -1.20469
H         49.73322        55.90801         0.27930
H         52.59127        19.45646        -0.46423
H         52.64315        53.69997        -2.16661
H         54.72027        20.68642        -0.44676
H         54.26360        52.36400        -3.36480
H         58.64390        22.65589         0.37129
H         56.54166        21.51088        -0.12279
H         57.00643        50.10310        -5.83708
H         55.15491        51.39918        -4.90793
H         58.18771        25.87476         3.86272
H         58.85867        49.29742        -5.26940
H         60.76048        25.42330         4.48424
H         62.04532        27.40323         3.35803
H         62.31223        29.58140         2.02284
H         62.14333        31.93476         1.44253
H         62.18118        33.69974         0.54841
H         61.99516        36.06197         0.05673
H         61.95226        37.81213        -1.04335
H         61.86213        39.91606        -2.25438
H         61.49042        42.05363        -1.96158
H         61.20120        44.44585        -2.35209
H         61.01796        46.26963        -3.12109
H         60.85219        48.58923        -3.97136
