         671
 CSIRO Nanostructure Databank - Neutral Graphene Oxide Data Set
C          6.02565        31.74758         1.49050
C          5.98664        33.11409         1.43600
C          8.32403        27.46354         0.60670
C          8.27613        28.83400         0.47788
C          7.19296        29.63979         0.98969
C          8.47143        31.79079         1.22369
C          7.24806        31.00685         1.27183
C          8.40992        33.18241         0.99057
C          7.16269        33.89241         1.13559
C          8.32269        36.03882         0.75680
C          7.14694        35.28437         1.04706
C          8.31729        37.44297         0.77691
C         10.67887        23.17532        -0.20344
C         10.82260        24.54145         0.48006
C          9.55277        25.34555         0.45210
C         10.77500        27.43764         0.04360
C          9.52741        26.70495         0.29792
C         10.75454        28.82471        -0.05313
C          9.40655        29.43980        -0.30641
C         10.87006        31.76701         0.65851
C          9.76480        31.18649         1.31174
C         10.80321        33.18148         0.41572
C          9.59855        33.90104         0.67140
C         10.72882        36.00913         0.14365
C          9.56410        35.31864         0.50047
C         10.67452        37.49887        -0.11825
C          9.47564        38.20745         0.48021
C         10.71754        40.35704         0.32339
C          9.51690        39.59648         0.56441
C         10.74159        41.75610         0.29625
C         13.21690        18.82100        -0.10852
C         13.16703        20.25018        -0.30101
C         12.00021        21.00202        -0.22157
C         13.18277        23.15402        -0.34452
C         11.99670        22.43094        -0.26005
C         13.23232        24.59998        -0.23725
C         12.03554        25.30937         0.00450
C         13.21524        27.44654        -0.35456
C         12.02229        26.72537        -0.07266
C         13.20112        28.88125        -0.30317
C         11.98532        29.57585        -0.02254
C         13.23958        31.67568        -0.00536
C         12.03343        30.99036         0.22589
C         13.20427        33.13901        -0.20049
C         11.96856        33.89186         0.04591
C         13.22054        36.01397        -0.10931
C         11.96132        35.30514        -0.03059
C         13.21302        37.51425        -0.25294
C         11.97120        38.13655         0.40476
C         13.17823        40.27991         0.13143
C         11.97030        39.63206         0.22595
C         13.19269        41.72493        -0.16466
C         11.94920        42.49362         0.07311
C         13.25510        44.60135        -0.11329
C         12.00968        43.87659        -0.00751
C         13.26434        46.00420        -0.15061
C         15.71298        14.43530         0.13693
C         15.57832        15.87420         0.40305
C         14.29176        16.57266        -0.02102
C         15.67966        18.74983        -0.12511
C         14.38291        18.08826        -0.08401
C         15.70422        20.17659        -0.56303
C         14.40876        20.92532        -0.69679
C         15.69170        23.18838        -0.51939
C         14.42755        22.45508        -0.67609
C         15.70976        24.56900        -0.46815
C         14.46220        25.29801        -0.40543
C         15.67648        27.43355        -0.63444
C         14.47405        26.73437        -0.46373
C         15.56455        28.86311        -1.11766
C         14.42141        29.60441        -0.45521
C         15.80373        31.63741        -0.02821
C         14.44915        30.98975        -0.30442
C         15.80395        33.20601         0.08873
C         14.49814        33.89289        -0.27649
C         15.67928        36.08460         0.05105
C         14.44211        35.36059        -0.08917
C         15.70698        37.45605         0.28693
C         14.46975        38.20226         0.24439
C         15.61420        40.39370         0.79181
C         14.43142        39.57095         0.33350
C         15.81383        41.62203        -0.14988
C         14.51606        42.43597        -0.29033
C         15.72499        44.60064         0.01212
C         14.50862        43.89951        -0.10159
C         15.73061        46.02497         0.00258
C         14.48107        46.75490        -0.11463
C         15.74386        48.90775         0.20838
C         14.49641        48.15088        -0.16300
C         15.79171        50.36621        -0.15858
C         18.32926        10.27120        -0.01524
C         18.22237        11.67741        -0.08877
C         17.01811        12.36316         0.06180
C         18.17820        14.57981         0.23808
C         16.94257        13.79779         0.13366
C         18.13745        15.94266         0.42028
C         16.85577        16.66294         0.55644
C         18.11397        18.86312         0.46246
C         16.84560        18.11328         0.23604
C         18.15482        20.32789         0.19094
C         16.95339        20.97511        -0.40682
C         18.20178        23.09975        -0.76439
C         16.95198        22.46390        -0.14003
C         18.18916        24.60086        -0.58538
C         16.99467        25.27320        -0.46411
C         18.16177        27.31471        -1.28743
C         17.01846        26.79039        -0.37916
C         18.19000        28.84599        -1.35331
C         16.89961        29.62430        -1.19746
C         18.15694        31.74544        -0.88651
C         16.97492        31.06896        -0.81841
C         18.27043        33.26266        -0.89435
C         16.92761        33.94498        -0.64068
C         18.21784        36.07659        -0.01890
C         16.93587        35.40650        -0.33127
C         18.17649        37.46495         0.37932
C         16.96527        38.13691         0.50739
C         18.20954        40.32780         0.88187
C         16.91939        39.57489         0.90388
C         18.20328        41.79331         0.63175
C         16.99534        42.46304         0.28995
C         18.19789        44.59217         0.21866
C         16.97445        43.86790         0.16886
C         18.19386        46.00339        -0.00833
C         16.96850        46.73203        -0.03306
C         18.20807        48.82865        -0.36481
C         17.00376        48.15705        -0.14665
C         18.25033        50.30188        -0.72625
C         16.96172        51.03432        -0.40316
C         18.21177        53.18173        -0.47513
C         17.01418        52.47019        -0.40326
C         18.25513        54.58615        -0.26435
C         20.98868         6.18482         0.41785
C         20.85643         7.47030        -0.04517
C         19.64506         8.20385         0.14352
C         20.78852        10.28674        -0.46815
C         19.55214         9.56927        -0.16922
C         20.74470        11.75690        -0.56693
C         19.44116        12.47308        -0.37808
C         20.64686        14.58995        -0.01554
C         19.46627        13.90694         0.00868
C         20.64123        16.09096         0.09314
C         19.41053        16.67158         0.79296
C         20.59693        18.87441         0.56364
C         19.40641        18.16829         0.55895
C         20.63516        20.32772         0.33681
C         19.44095        21.04516         0.04163
C         20.68066        23.14038        -0.19320
C         19.45999        22.41566        -0.24949
C         20.71080        24.56560        -0.39751
C         19.46709        25.30629        -0.62803
C         20.70362        27.43218        -0.74818
C         19.47593        26.67683        -0.82948
C         20.71738        28.80095        -0.82751
C         19.50728        29.56579        -1.20560
C         20.66026        31.78167        -0.53049
C         19.46955        31.07410        -1.08138
C         20.65951        33.11259        -0.16589
C         19.33399        33.80721         0.06961
C         20.65950        35.99902         0.20984
C         19.38785        35.32943         0.06906
C         20.70896        37.38973         0.43790
C         19.45505        38.08743         0.90459
C         20.66782        40.26098         0.82238
C         19.49619        39.59406         0.73088
C         20.68650        41.75805         1.09132
C         19.41178        42.48015         0.70468
C         20.65177        44.58512         0.34165
C         19.43751        43.88903         0.43895
C         20.65740        45.93716        -0.20708
C         19.41028        46.71936        -0.17450
C         20.75982        48.80316        -0.25874
C         19.42592        48.09536        -0.40233
C         20.76462        50.28875        -0.51473
C         19.48657        51.02281        -0.14442
C         20.64884        53.17797        -0.78075
C         19.49822        52.48581        -0.55440
C         20.61593        54.68022        -1.12708
C         19.42550        55.35985        -0.39328
C         20.33678        57.69205        -0.07845
C         19.35914        56.67498         0.12380
C         20.71088        58.77341         0.68864
C         23.66547         3.60042         1.01049
C         22.43641         4.17976         0.98946
C         23.36115         5.97904        -0.57636
C         22.16945         5.34792         0.14065
C         23.28158         7.44154        -0.93566
C         21.91101         8.13277        -0.91342
C         23.24843        10.36164        -0.55547
C         21.98897         9.63076        -0.62052
C         23.20639        11.82838        -0.41969
C         22.01088        12.49855        -0.44130
C         23.18682        14.72294        -0.23340
C         21.91523        13.99659        -0.60972
C         23.17262        16.05027         0.15781
C         21.90820        16.65739         0.73959
C         23.06055        18.85005         0.75142
C         21.87040        18.16866         0.67335
C         23.06244        20.32506         0.78008
C         21.84615        21.03164         0.33659
C         23.13758        23.14951         0.08303
C         21.89738        22.43659         0.07334
C         23.15768        24.54660        -0.05811
C         21.93238        25.23948        -0.32835
C         23.05290        27.41674         0.20518
C         22.03410        26.70203        -0.69115
C         23.18804        28.86476        -0.19097
C         22.02294        29.56954        -0.85115
C         23.16469        31.71586        -0.00799
C         21.87259        30.97908        -0.30420
C         23.16140        33.17847        -0.12858
C         21.90135        33.85969        -0.06764
C         23.09386        36.03880        -0.29123
C         21.87303        35.26927         0.00970
C         23.13497        37.46743         0.05836
C         21.94510        38.09008         0.44373
C         23.12499        40.27018         0.21625
C         21.99345        39.52029         0.94968
C         23.20597        41.70981         0.60655
C         21.91328        42.40672         0.47573
C         23.21076        44.59921         0.27924
C         21.92494        43.86580         0.25663
C         23.23397        45.90219        -0.09733
C         21.97403        46.57724        -0.50832
C         23.26058        48.78643        -0.93432
C         21.97167        48.05480        -0.79726
C         23.23186        50.30705        -1.11783
C         21.93045        50.96027        -0.65764
C         23.25859        53.12602        -0.66571
C         21.93827        52.44642        -0.59096
C         23.25252        54.54818        -1.13896
C         21.98519        55.31856        -0.85801
C         23.29163        57.33916        -0.13310
C         22.15249        56.66397        -0.80670
C         23.22247        58.78530         0.20491
C         22.00204        59.45195         0.53566
C         23.29142        61.47765         1.02502
C         22.07260        60.80123         0.94797
C         24.79195         4.19623         0.34083
C         25.90170         6.07289        -0.90875
C         24.68768         5.37877        -0.33255
C         25.85533         7.57274        -0.69702
C         24.54412         8.25457        -0.85737
C         25.71548        10.41417        -0.09439
C         24.46239         9.70219        -0.56156
C         25.66422        11.88175        -0.43908
C         24.47031        12.57062        -0.45628
C         25.63975        14.74451        -0.33622
C         24.45344        14.03149        -0.41091
C         25.68312        16.24059        -0.21466
C         24.38143        16.80583         0.29820
C         25.57546        18.87663         0.77335
C         24.33087        18.15717         0.63579
C         25.62353        20.27553         0.83836
C         24.35742        21.04218         0.77611
C         25.56372        23.19387         0.76231
C         24.44641        22.38227         0.09005
C         25.71922        24.55792         0.08969
C         24.40029        25.30791         0.11810
C         25.60147        27.43762         0.42697
C         24.38361        26.68117         0.24029
C         25.62183        28.81301         0.23576
C         24.38800        29.54120        -0.04851
C         25.63378        31.69406        -0.06183
C         24.42820        30.97982        -0.12465
C         25.63189        33.13547        -0.08536
C         24.39312        33.84499        -0.23844
C         25.73212        36.05224        -0.58542
C         24.40570        35.29016        -0.52068
C         25.65664        37.47173        -0.04526
C         24.42070        38.15497         0.11522
C         25.64139        40.26200         0.54560
C         24.43359        39.54795         0.33995
C         25.63623        41.68818         0.71844
C         24.40632        42.39600         0.68707
C         25.73374        44.54067         0.43661
C         24.42461        43.90361         0.87535
C         25.72713        46.04626         0.36352
C         24.52775        46.62237        -0.40834
C         25.77934        48.79471        -0.45526
C         24.44181        48.14766        -0.19337
C         25.79114        50.29788        -0.28845
C         24.50521        51.00177        -0.67692
C         25.80161        53.09688        -0.83100
C         24.53808        52.35724        -0.77926
C         25.68488        54.51943        -1.00183
C         24.54675        55.25547        -0.79727
C         25.87374        57.35581         0.14737
C         24.61397        56.60787        -0.19057
C         25.72139        58.70217         0.43228
C         24.46884        59.42836         0.43868
C         24.48353        60.79594         0.80314
C         27.00095         8.29440        -0.63674
C         28.17664        10.44062        -0.58707
C         27.01543         9.74190        -0.50121
C         28.21988        11.89788        -0.20538
C         26.93524        12.57789        -0.64372
C         28.17590        14.78219        -0.24586
C         26.92179        14.09468        -0.58230
C         28.17656        16.07892         0.30386
C         26.91828        16.78194         0.50112
C         27.85937        18.88145         1.50907
C         26.79510        18.12331         0.93143
C         28.01343        20.25729         1.35299
C         26.84532        20.99445         0.99066
C         28.05987        23.13258         1.02776
C         26.87795        22.42900         0.87319
C         28.05920        24.58913         0.94799
C         26.91012        25.28185         0.67521
C         28.13368        27.44117         0.62800
C         26.83342        26.75473         0.98441
C         28.09015        28.81775         0.25099
C         26.87862        29.53294         0.16959
C         28.07205        31.70203         0.05333
C         26.87263        30.96481         0.00251
C         28.06189        33.10865         0.17179
C         26.86022        33.84550         0.06021
C         28.08902        35.99211         0.16154
C         26.91739        35.29878        -0.01211
C         28.17705        37.46697        -0.17374
C         26.86784        38.17041         0.14656
C         28.12435        40.21240         0.83690
C         26.86073        39.52539         0.51483
C         28.15416        41.69463         1.09075
C         26.85307        42.47665         1.15815
C         28.19631        44.53394         0.34732
C         26.91322        43.86576         0.55133
C         28.20222        45.94411        -0.02282
C         27.00810        46.66301        -0.13738
C         28.23241        48.81180        -0.55575
C         26.96810        48.08344        -0.43682
C         28.26606        50.18312        -0.60282
C         27.00931        50.95511        -0.93277
C         28.29543        53.11393        -0.31591
C         27.04099        52.46704        -0.68547
C         28.41546        54.45197         0.19039
C         27.50814        55.48340        -0.13972
C         27.12862        56.69069         0.45262
C         29.41217        12.68915        -0.67089
C         30.57961        14.87583        -0.77635
C         29.40827        14.08482        -0.57031
C         30.61088        16.21793        -0.33399
C         29.47942        16.70994         0.41157
C         30.69856        18.81953         0.87398
C         29.71019        17.88398         1.15488
C         30.64627        20.17338         1.51372
C         29.31387        20.93662         1.66288
C         30.58110        23.19879         1.30338
C         29.30688        22.44653         1.46114
C         30.59416        24.56830         1.18043
C         29.30605        25.35565         1.36936
C         30.60534        27.37745         0.49743
C         29.33330        26.75110         0.77191
C         30.63697        28.78921         0.19369
C         29.35909        29.48675        -0.05160
C         30.60817        31.72434         0.16595
C         29.35533        31.00214        -0.09165
C         30.61048        33.08792         0.26351
C         29.33006        33.79797         0.45934
C         30.63938        35.99935         0.39580
C         29.33797        35.30085         0.52222
C         30.65809        37.40028         0.47419
C         29.40933        38.14666         0.40187
C         30.61064        40.23096         1.04807
C         29.39595        39.49407         0.62212
C         30.60282        41.70524         0.84824
C         29.42728        42.41611         0.81720
C         30.66991        44.51795         0.29543
C         29.40176        43.83569         0.48596
C         30.66262        45.93177        -0.01759
C         29.46795        46.60951        -0.20886
C         30.75274        48.78079        -0.36627
C         29.50115        48.02135        -0.75229
C         30.71651        50.18991        -0.29352
C         29.51037        50.91314        -0.43196
C         29.46421        52.30598        -0.21906
C         31.74331        17.06713        -0.48533
C         32.92237        19.22438        -0.10525
C         31.78953        18.38248         0.04754
C         33.05175        20.45964         0.58530
C         31.90950        20.97723         1.41451
C         33.14643        23.23139         1.51079
C         31.84328        22.47381         1.57222
C         33.08649        24.61735         1.02000
C         31.84791        25.28075         0.95980
C         33.06670        27.31071         0.05334
C         31.80773        26.66266         0.57790
C         33.08632        28.81333         0.15385
C         31.83654        29.49554         0.12879
C         32.95713        31.70110        -0.61244
C         31.91451        30.98962         0.29376
C         33.05499        33.14546        -0.08349
C         31.85687        33.83422         0.19776
C         33.09130        35.97545         0.22610
C         31.85380        35.26147         0.31273
C         33.11312        37.38386         0.45847
C         31.90576        38.06975         0.65864
C         33.24650        40.21457         1.23884
C         31.91107        39.47807         1.10787
C         33.18088        41.64187         0.69235
C         31.87963        42.36423         0.51716
C         33.15232        44.49950         0.16518
C         31.87866        43.82998         0.36576
C         33.12761        45.91485        -0.09075
C         31.93944        46.62933        -0.14247
C         31.93585        48.06039        -0.22526
C         34.20507        21.21744         0.48458
C         35.63297        23.22999         1.00685
C         34.43640        22.40476         1.39850
C         35.60988        24.58753         0.85453
C         34.33436        25.31904         0.80566
C         35.58075        27.47642         0.74491
C         34.32949        26.66536         0.53896
C         35.54405        28.84660         0.11054
C         34.28526        29.50861        -0.01818
C         35.54408        31.64921        -0.34171
C         34.29849        30.88066        -0.69547
C         35.57130        33.11598        -0.00243
C         34.26883        33.85726        -0.12943
C         35.56997        35.97698        -0.06007
C         34.30329        35.25643         0.01984
C         35.58420        37.39230         0.09915
C         34.38019        38.10874         0.41433
C         35.63108        40.23824         0.37167
C         34.41687        39.48819         0.60918
C         35.64614        41.64056         0.42665
C         34.45975        42.45032         0.88327
C         34.35658        43.82550         0.27947
C         36.82450        25.32488         0.56653
C         38.03391        27.44273         0.19160
C         36.84017        26.69789         0.43337
C         38.01611        28.83105         0.01242
C         36.74653        29.52748        -0.10595
C         38.00366        31.70800        -0.27325
C         36.74073        30.96899        -0.28160
C         38.01888        33.08669        -0.42831
C         36.72597        33.82583        -0.69173
C         38.01645        35.98200        -0.38586
C         36.76769        35.29026        -0.32127
C         38.02557        37.38026        -0.26840
C         36.82246        38.10791        -0.04084
C         36.81672        39.51556         0.04985
C         39.23057        29.58237        -0.08071
C         40.47676        31.71504        -0.27077
C         39.24384        30.97007        -0.19610
C         40.48366        33.07511        -0.39863
C         39.25198        33.82678        -0.46321
C         39.23698        35.22074        -0.50841
O         13.78285        42.02761        -1.49970
O         17.92588        19.87364         1.57895
O         23.61001        20.97495         2.03384
O         22.42611         5.13208        -1.30143
O         26.83463        55.22580        -1.34580
O         29.37362        30.20540        -1.33655
O         22.63395        52.93236         0.64613
O         19.94798        12.23545        -1.75085
O         29.22320        21.82361         2.80969
O         28.19226        40.77320         2.23137
O         21.11422        57.49323        -1.24118
O         23.57533        35.68523        -1.65957
O         13.87043        33.46073        -1.50602
O         31.12292        39.71356         2.33875
O         14.31226        21.67799        -1.93486
O         23.74326        56.53910         1.02558
O         16.04866        16.28265         1.74038
O          9.22353        30.25903        -1.19401
O         16.60041        20.45184        -1.70607
O         21.78065        42.86190        -0.91822
O         17.49837        29.36807        -2.52438
O         17.58835        39.89550         2.19020
O         32.47900        23.00101         2.79529
O         22.61826        48.19452        -2.11199
O         23.96973         7.81854        -2.17265
O         32.43970        31.87505        -1.88994
O         32.61081        41.69243        -0.63564
O         16.63357        34.85482        -1.72869
O         29.26468        34.50741         1.76234
O         19.75405        30.44184        -2.36324
O         27.00772        13.35150        -1.86532
O         28.83369        18.17535         2.20891
O         21.26635        45.88800        -1.59241
O         22.32130        31.14310         1.07516
O         31.57679        20.26190         2.64372
O         28.21347        11.93432         1.26501
H         27.49307        11.32804         1.56523
O         18.74059        33.58738        -2.21389
H         18.01827        34.06531        -2.68488
O         12.01573        37.84732         1.82276
H         12.74915        38.36528         2.21676
O         17.94532        26.81773        -2.62415
H         17.66032        27.57804        -3.18241
O         16.17086        41.09433        -1.44588
H         15.37776        41.20818        -2.02518
O         25.82531        16.74162        -1.60176
H         25.14054        16.29681        -2.14626
O         15.26174        40.90943         2.09398
H         16.06097        40.80747         2.66585
O         17.40023        27.18318         0.97643
H         16.81012        26.71932         1.60698
O         29.59204        47.85939        -2.21822
H         30.40985        47.34975        -2.40373
O         24.08941        48.44424         1.19171
H         24.66326        47.85956         1.75912
O         22.76992        40.24182        -1.20655
H         22.52269        41.15280        -1.49183
O         15.06394        28.73276        -2.49314
H         15.83749        28.82363        -3.09771
O         25.91260        50.50460         1.15015
H         25.15987        50.01696         1.56598
O         17.02870        22.63187         1.30630
H         17.42795        21.83172         1.71603
O         35.87887        33.16881         1.43144
H         35.13461        32.74941         1.91377
O         18.42823        50.36076        -2.16647
H         17.65366        49.93892        -2.59287
O         29.18679        25.56866         2.82199
H         29.28973        24.69443         3.25909
O         25.72263        10.34734         1.38684
H         24.91056        10.79673         1.70670
O         34.46128        30.50665        -2.09217
H         33.69709        30.97779        -2.54922
O         24.77306        22.05576        -1.27980
H         25.15958        22.86204        -1.70198
O         27.11358         5.52482        -0.39869
H         27.16545         5.71683         0.55962
O         33.56258        40.27877         2.66068
H         32.70424        40.16443         3.14047
O         16.09493        31.10187         1.30279
H         15.88550        31.81957         1.95064
O         34.74518        21.83955         2.69967
H         33.91797        21.90401         3.23814
O         26.04233        36.18804        -2.01206
H         25.17703        36.31645        -2.47150
O         19.36921        50.96736         1.30814
H         20.00706        51.61121         1.68472
O         13.16568        37.77840        -1.69254
H         13.89000        37.26818        -2.11420
O         26.62801        42.74223         2.59495
H         26.95802        41.93744         3.06619
O         22.32284        39.46248         2.35639
H         21.61444        38.94833         2.80213
O         11.06494        24.22869         1.89314
H         11.14618        25.07553         2.37995
O          9.90717        30.07655         2.09103
H         10.84705        29.80285         2.10895
O         23.23551        50.57691        -2.55118
H         22.75806        49.83252        -2.98843
O         21.77597        14.21882        -2.06672
H         21.07012        13.58580        -2.36492
O         25.62621        46.44356         1.77990
H         25.11326        45.72623         2.24735
O         20.59511        16.58251        -1.27288
H         21.08355        15.93485        -1.84290
O         10.53086        37.69850        -1.54272
H         11.41645        37.58149        -1.96530
O         21.38802         8.03478        -2.26381
H         22.15694         8.12211        -2.87214
O         18.14262        22.84449        -2.18948
H         18.73942        23.47308        -2.64536
O         19.43336        37.88862         2.36634
H         18.67851        38.43659         2.70029
O         24.32798        44.14992         2.32462
H         25.05861        43.60890         2.73394
O         26.68911        26.85652         2.44038
H         27.49360        26.43283         2.83639
O         16.02587        33.54646         1.48893
H         17.00473        33.52299         1.65685
O         22.58605        26.77327        -2.04820
H         21.98754        26.27185        -2.64216
O         15.71308        48.92086         1.69754
H         15.70592        47.98479         1.99264
O         26.84018        50.80522        -2.36979
H         27.67122        51.07884        -2.81051
O         32.41464        31.20295         1.65283
H         31.80286        30.76648         2.28232
O         33.04084        27.04291        -1.41121
H         33.54665        27.76197        -1.85157
O         25.13922        23.46991         2.11358
H         24.76883        22.64803         2.50649
O         23.27598        54.42811        -2.60383
H         23.09369        55.30675        -2.99737
O         21.96136        16.25790         2.13513
H         22.60260        16.83971         2.59318
O         34.66730        42.67120         2.31749
H         34.48483        41.80493         2.76725
O         22.49520        27.40409         1.54712
H         23.16421        27.77807         2.15877
O         26.05171        24.35677        -1.32458
H         26.05504        25.23485        -1.76156
O         36.48303        33.77699        -2.12482
H         37.25470        34.17455        -2.57897
O         13.90033        16.08363        -1.31676
H         14.46877        16.50033        -1.99663
O         19.49574        16.46684         2.22636
H         18.65802        16.78588         2.62436
O         28.36382        37.57044        -1.61700
H         27.59291        37.11130        -2.04213
O         35.62445        27.72184         2.20027
H         36.48727        28.14581         2.39580
O         20.99804        48.70408         1.19509
H         20.36515        49.33609         1.62030
O         22.40832        29.69943        -2.25051
H         22.53312        28.78329        -2.59397
O         18.87580        33.43201         1.41504
H         19.58281        33.66126         2.05604
O         10.20497        23.38500        -1.53696
H         10.38753        22.58255        -2.06682
O         24.78284        46.38370        -1.80689
H         24.01570        46.73661        -2.31717
O         20.85512        41.92183         2.52880
H         20.13105        41.43759         2.97800
O         20.32009        54.78399        -2.54293
H         20.26289        55.74025        -2.75438
H          5.09480        31.18071         1.64292
H          5.03142        33.64093         1.57854
H          7.48501        26.92118         1.07196
H          6.22878        29.12917         1.15445
H          6.20257        35.82384         1.21762
H          7.39325        37.96691         1.06903
H          9.92492        22.56540         0.37568
H          8.62326        24.81686         0.71557
H          8.60451        40.14626         0.84575
H          9.80255        42.31497         0.42707
H         12.25863        18.29010         0.00297
H         11.04709        20.48764        -0.02114
H         11.08181        44.46292         0.07367
H         12.30829        46.54775        -0.18173
H         14.80020        13.85727        -0.07012
H         13.47300        16.27854         0.68547
H         13.54362        48.69892        -0.22343
H         14.87633        50.95167         0.02773
H         17.42436         9.69064         0.22039
H         16.08474        11.78986         0.16806
H         16.07457        53.02499        -0.25255
H         17.33004        55.08593         0.06538
H         20.17068         5.73757         1.00451
H         18.77136         7.68592         0.56705
H         18.50057        56.90775         0.77538
H         20.07076        59.10157         1.52167
H         23.84034         2.70520         1.62386
H         21.62229         3.79524         1.62124
H         23.31051        62.53524         1.32285
H         21.14387        61.32382         1.21772
H         25.78304         3.73502         0.46107
H         25.90451         5.88654        -2.01869
H         26.61354        59.27190         0.73621
H         25.44752        61.30296         0.95229
H         27.96772         7.76803        -0.66847
H         29.11635         9.91485        -0.81836
H         29.25581        54.66080         0.87119
H         27.75999        57.14404         1.23247
H         30.34534        12.16329        -0.92235
H         31.48182        14.41517        -1.20386
H         31.64686        50.73644        -0.07355
H         30.40443        52.80713         0.06010
H         32.61513        16.69111        -1.04027
H         33.77106        18.87233        -0.70995
H         34.08490        46.44880        -0.18723
H         32.89150        48.59577        -0.11444
H         35.04100        20.83916        -0.12407
H         36.59637        22.69900         0.96601
H         36.59695        42.16692         0.24620
H         35.29331        44.38377         0.12662
H         37.75870        24.75424         0.44611
H         38.99686        26.90895         0.16761
H         38.97736        37.92780        -0.33619
H         37.75365        40.07109        -0.10688
H         40.18664        29.03861        -0.02699
H         41.42621        31.16130        -0.22000
H         41.43692        33.62257        -0.44136
H         40.19129        35.76855        -0.52923
