         598
 CSIRO Nanostructure Databank - Neutral Graphene Oxide Data Set
C         23.11944        69.75301         1.88377
C         23.11968        71.15379         2.10602
C         21.92020        71.86994         2.36690
C         23.15924        73.94945         2.57685
C         21.95125        73.24167         2.59417
C         25.53670        65.52961         1.02833
C         25.52296        66.95079         1.17372
C         24.33220        67.64293         1.42900
C         25.55380        69.78281         1.57599
C         24.31149        69.05446         1.62497
C         25.57194        71.18068         1.81957
C         24.35736        71.87287         2.08272
C         25.62420        73.98089         2.30006
C         24.37815        73.28348         2.32621
C         27.98652        61.31762         0.31883
C         27.92495        62.70874         0.29694
C         26.77090        63.41064         0.72501
C         27.99589        65.56973         0.73294
C         26.71955        64.81959         0.80307
C         27.97432        67.03945         0.76032
C         26.76213        67.69447         1.05902
C         28.00357        69.81290         1.27141
C         26.76475        69.10227         1.27814
C         28.01773        71.19230         1.61560
C         26.82177        71.88243         1.84498
C         28.07261        74.02503         1.99118
C         26.83129        73.31782         2.07625
C         30.35621        57.02844        -0.40027
C         30.28609        58.43524        -0.52852
C         29.15097        59.18122        -0.11031
C         30.17522        61.27533        -0.86664
C         29.10710        60.58603        -0.19400
C         30.20150        62.76932        -0.95442
C         29.04769        63.48367        -0.31368
C         30.33540        65.72754        -0.31387
C         29.21941        64.88840         0.16869
C         30.37139        67.07289         0.05955
C         29.17981        67.75855         0.56275
C         30.41766        69.91725         0.76034
C         29.20898        69.14859         0.87186
C         30.49200        71.23545         1.19285
C         29.33262        71.85936         1.92227
C         30.50964        74.06247         1.67892
C         29.29149        73.36789         1.80492
C         32.79198        52.73723        -0.69480
C         32.71395        54.14036        -0.81312
C         31.53408        54.89864        -0.68719
C         32.67844        57.06712        -1.22330
C         31.51258        56.32782        -0.78586
C         32.65139        58.46519        -1.36247
C         31.39545        59.12806        -1.11985
C         33.06334        61.58966        -1.41838
C         31.17897        60.49751        -1.43337
C         32.80349        62.81534        -0.77992
C         31.53085        63.53633        -1.25675
C         32.83796        65.71287        -0.45624
C         31.53391        65.03596        -0.83997
C         32.81972        67.13465        -0.04066
C         31.61142        67.81480         0.01551
C         32.90179        69.94514         0.41633
C         31.58830        69.31818         0.02642
C         32.90818        71.31235         0.75899
C         31.71006        71.98206         1.09726
C         32.96195        74.10259         1.44459
C         31.73698        73.39868         1.41368
C         35.48640        48.80323        -0.22241
C         35.22846        49.83993        -1.29461
C         34.01285        50.67566        -1.03759
C         35.33514        52.74643        -0.43854
C         34.03397        52.01334        -0.74648
C         35.16112        54.21864        -0.84181
C         33.95236        54.85311        -1.05187
C         35.20585        57.02351        -1.72947
C         33.89829        56.27240        -1.49057
C         35.22842        58.52919        -1.74261
C         33.92339        59.26471        -1.61351
C         35.11901        61.04576        -0.11812
C         34.07958        60.68749        -1.15122
C         35.20031        62.59144         0.15554
C         33.92238        63.40174        -0.00181
C         35.32415        65.52613        -0.14221
C         33.96930        64.92105         0.17760
C         35.35253        67.03981        -0.03523
C         34.08192        67.80339         0.11999
C         35.37481        69.85624         0.69978
C         34.10147        69.18828         0.33091
C         35.45261        71.34275         0.51905
C         34.16673        72.08675         0.67366
C         35.43681        74.08965         1.42963
C         34.20614        73.48119         1.17195
C         37.99674        44.66386         0.82675
C         37.88722        45.91336         0.16674
C         36.78764        46.79465         0.40577
C         37.63700        48.39523        -1.32811
C         36.58170        47.95186        -0.36690
C         37.72596        49.85935        -1.50533
C         36.52006        50.62364        -1.30833
C         37.85941        52.60058        -1.26222
C         36.59590        52.01344        -1.01817
C         38.14605        53.95837        -0.96390
C         36.29300        55.07464        -0.74394
C         37.69789        57.01260        -1.22306
C         36.41670        56.33112        -1.27451
C         37.73373        58.37770        -1.15178
C         36.55334        59.27753        -1.44546
C         37.76144        61.14719        -0.14960
C         36.47629        60.40106        -0.38825
C         37.75400        62.61804         0.06617
C         36.52820        63.32232         0.14974
C         37.79244        65.45644         0.17700
C         36.56144        64.74754         0.10949
C         37.82055        66.91786         0.33586
C         36.63355        67.64398         0.34919
C         37.92367        69.76208         0.82834
C         36.64808        69.05621         0.74051
C         37.87758        71.16548         1.28136
C         36.79687        72.05079         0.68795
C         37.87233        74.03237         1.73287
C         36.70885        73.41962         1.34022
C         40.08773        40.24165         1.83742
C         39.75433        41.39546         1.08296
C         39.05062        42.54269         1.41905
C         40.05870        44.07483        -0.37081
C         39.03865        43.73362         0.59832
C         39.81069        45.25333        -1.11581
C         38.87338        46.24071        -0.81356
C         40.17242        48.32663        -1.65946
C         38.89094        47.57304        -1.49848
C         40.19686        49.72038        -1.79847
C         38.94959        50.44734        -1.81435
C         40.20743        52.61829        -2.32774
C         38.85096        51.89888        -2.20360
C         40.22805        54.12421        -2.22172
C         39.01925        54.76777        -1.65367
C         40.24434        56.97184        -1.64449
C         38.93713        56.24175        -1.58089
C         40.28070        58.28336        -0.93397
C         38.99563        59.03786        -0.75066
C         40.22665        61.18163        -0.48336
C         39.03708        60.50441        -0.55611
C         40.26106        62.61140        -0.22297
C         39.00210        63.31687         0.03611
C         40.28244        65.44800         0.35662
C         39.00445        64.72593         0.20114
C         40.29967        66.93467         0.37071
C         39.07647        67.61943         0.52676
C         40.37051        69.72798         0.99426
C         39.11765        69.04345         0.79311
C         40.41875        71.11463         1.33996
C         39.16119        71.83163         1.66779
C         40.40279        73.99679         1.35750
C         39.19846        73.33414         1.96005
C         42.53161        36.04324         2.52126
C         42.52926        37.42647         2.19909
C         41.38519        38.20889         2.17619
C         42.50380        40.16251         1.10409
C         41.30195        39.54065         1.62304
C         42.60249        41.43317         0.46083
C         41.45763        42.08534        -0.06972
C         42.64228        44.10818        -0.65550
C         41.37954        43.44048        -0.43837
C         42.73379        45.49696        -1.03300
C         41.64034        46.19451        -1.55119
C         42.72944        48.42198        -1.25152
C         41.43750        47.62654        -1.35177
C         42.71590        49.84572        -1.61244
C         41.46793        50.48952        -1.83367
C         42.69275        52.63981        -1.96927
C         41.47433        51.89307        -2.05588
C         42.71205        54.08790        -1.97775
C         41.50461        54.83349        -1.97226
C         42.73347        56.94637        -1.77392
C         41.51580        56.21567        -1.74746
C         42.76739        58.38516        -1.52211
C         41.58408        59.00462        -0.86510
C         42.74671        61.26470        -0.87027
C         41.53045        60.48164        -0.61076
C         42.73714        62.61540        -0.64882
C         41.48680        63.27146        -0.29079
C         42.72005        65.48328        -0.42623
C         41.55934        64.69483         0.08900
C         42.71694        67.00348        -0.22621
C         41.51809        67.63965         0.33900
C         42.82397        69.70420         0.69033
C         41.59738        69.03659         0.68158
C         42.93082        71.11597         1.20505
C         41.61005        71.84220         1.23260
C         42.81299        73.99525         0.92986
C         41.58803        73.29264         1.19689
C         44.99411        33.26591         3.07146
C         43.77235        33.93362         2.87991
C         44.99517        36.08460         2.90311
C         43.72684        35.33115         2.71962
C         45.00528        37.54681         2.61626
C         43.84152        38.04308         1.74493
C         45.04706        40.30733         1.54786
C         43.75147        39.56255         1.64705
C         45.09741        41.54415         0.73661
C         43.85218        42.15247         0.30236
C         45.14831        44.11323        -0.55998
C         43.85324        43.41708        -0.32941
C         45.17622        45.58584        -0.69476
C         43.98311        46.23021        -0.93254
C         45.28752        48.38692        -1.43400
C         43.98087        47.63204        -1.39297
C         45.20739        49.85546        -1.39542
C         43.96049        50.54162        -1.61266
C         45.13962        52.72382        -1.57655
C         43.93352        51.97226        -1.74716
C         45.18432        54.11828        -1.74040
C         43.93803        54.81041        -1.90662
C         45.17824        56.96162        -2.20002
C         43.93140        56.23017        -1.93671
C         45.14521        58.49041        -2.16927
C         43.91047        59.12715        -1.66632
C         45.10578        61.34730        -1.63187
C         44.04043        60.48591        -0.99174
C         45.21542        62.73664        -1.24117
C         44.07406        63.34058        -0.43591
C         45.11527        65.59154        -0.95241
C         44.00047        64.83574        -0.66720
C         45.14487        67.01516        -0.67674
C         44.01270        67.66280        -0.19378
C         45.25502        69.81412         0.00074
C         44.12968        68.96379         0.55782
C         45.20052        71.25211         0.10735
C         44.07359        71.89285         0.58377
C         45.22326        74.08920         0.49510
C         44.01728        73.34685         0.64873
C         46.21577        33.93581         3.06004
C         47.48642        36.00146         2.64074
C         46.28348        35.34724         2.90742
C         47.57022        37.39796         2.33599
C         46.34011        38.21749         2.44315
C         47.60507        40.07657         1.27073
C         46.35368        39.61481         1.87089
C         47.58832        41.34098         0.56499
C         46.31944        42.08506         0.42093
C         47.54989        44.26291         0.39490
C         46.42328        43.42510        -0.18700
C         47.60540        45.68106        -0.11352
C         46.43903        46.31132        -0.62489
C         47.65022        48.46207        -0.64187
C         46.48609        47.69750        -0.92200
C         47.61690        49.88936        -0.83889
C         46.40806        50.55040        -1.14051
C         47.63531        52.80622        -1.09007
C         46.33840        52.02423        -1.09645
C         47.63601        54.18839        -1.55137
C         46.43963        54.86458        -1.70450
C         47.63217        57.04306        -1.85142
C         46.46449        56.30057        -1.93985
C         47.64092        58.49250        -1.95520
C         46.43766        59.18260        -2.01819
C         47.65040        61.39465        -1.97853
C         46.41064        60.63699        -2.08896
C         47.59721        62.79482        -1.88571
C         46.36287        63.45151        -1.55592
C         47.62187        65.71039        -1.51271
C         46.32796        64.93438        -1.49194
C         47.63304        67.08161        -0.98228
C         46.41172        67.73127        -0.69888
C         47.64264        69.88743        -0.70022
C         46.37398        69.15294        -0.48071
C         47.65985        71.36914        -0.60154
C         46.31228        72.09870        -0.52515
C         47.65408        74.12026         0.20130
C         46.42365        73.46541         0.11823
C         48.76124        38.02807         1.99688
C         50.06032        40.06516         1.33369
C         48.81462        39.38696         1.51030
C         50.13409        41.42997         1.00073
C         48.93866        42.09139         0.44143
C         50.01458        44.28045         0.72828
C         48.89613        43.56334         0.40791
C         49.88936        45.75238         0.89121
C         48.75572        46.43634         0.19574
C         49.91724        48.64244         0.43706
C         48.79287        47.81784        -0.07856
C         50.08036        50.05504        -0.06070
C         48.85128        50.69602        -0.62851
C         49.98530        52.66232        -1.73599
C         48.88125        52.04814        -1.25028
C         50.20576        54.11457        -1.86374
C         48.94284        54.87927        -1.53960
C         50.19928        57.01886        -1.89608
C         48.91322        56.36118        -1.56635
C         50.18532        58.53913        -1.94334
C         48.87827        59.24657        -1.86339
C         50.10720        61.37565        -1.55296
C         48.86547        60.63531        -1.86176
C         50.17807        62.80587        -1.92572
C         48.85443        63.57467        -2.03304
C         50.09803        65.67058        -1.48209
C         48.90423        65.00137        -1.65209
C         50.12700        67.05563        -1.03642
C         48.89969        67.70091        -0.78117
C         50.12253        69.82505        -0.00886
C         48.86364        69.10879        -0.32419
C         50.12416        71.31366        -0.08354
C         48.92414        72.03360        -0.19089
C         50.12883        74.11292         0.26116
C         48.90984        73.44464         0.04974
C         51.29179        42.21799         1.20004
C         52.41433        44.40887         1.36434
C         51.27284        43.62969         1.07591
C         52.40272        45.83313         1.45148
C         51.08599        46.52577         1.36431
C         52.32139        48.81529         1.39963
C         51.05373        48.02385         1.18912
C         52.47929        50.12535         0.73578
C         51.47241        50.61170        -0.14466
C         52.79901        52.68726        -0.62071
C         51.78970        51.72219        -0.93090
C         52.83290        54.04492        -1.12177
C         51.59205        54.77677        -1.72606
C         52.56106        57.11737        -1.95235
C         51.48383        56.31056        -1.65764
C         52.65712        58.54341        -1.66641
C         51.44354        59.22374        -1.61718
C         52.69567        61.38614        -1.41195
C         51.42168        60.65598        -1.34139
C         52.63718        62.82152        -1.44847
C         51.43323        63.51017        -1.65126
C         52.67169        65.74636        -1.63860
C         51.37871        64.97672        -1.77297
C         52.61756        67.12912        -1.09504
C         51.39570        67.73038        -0.81028
C         52.64468        69.87203        -0.24632
C         51.42582        69.02014         0.01447
C         52.60344        71.27048        -0.00992
C         51.35752        71.99474         0.06929
C         52.59541        74.10976         0.37836
C         51.36027        73.41892         0.22411
C         53.56780        46.56624         1.61503
C         54.86405        48.78098         1.59379
C         53.61505        48.03457         1.70798
C         54.86532        50.16638         1.37904
C         53.69842        50.82401         0.80453
C         54.97043        52.91612         0.54544
C         53.81980        52.14891         0.24787
C         55.06457        54.24574         0.06359
C         54.02623        54.77793        -0.78346
C         55.22508        57.00076        -0.74463
C         54.32383        56.08669        -1.28508
C         55.19395        58.46773        -1.14169
C         53.91999        59.21683        -1.37727
C         55.10702        61.43531        -0.95318
C         53.91366        60.65345        -1.30593
C         55.06153        62.84328        -0.96600
C         53.88153        63.57707        -1.32635
C         55.18970        65.72193        -1.68919
C         53.90478        64.96695        -1.43566
C         55.10724        67.18914        -1.19769
C         53.88932        67.80685        -0.87773
C         55.08585        69.93473        -0.29342
C         53.86889        69.21026        -0.47978
C         55.04274        71.30236         0.06663
C         53.82274        71.99757         0.12234
C         55.05066        74.13704         0.49161
C         53.81757        73.43197         0.35313
C         56.02337        50.94845         1.61318
C         57.14854        53.12475         1.65735
C         56.05161        52.32249         1.30446
C         57.25678        54.46884         1.22636
C         56.21670        55.04902         0.38270
C         57.51922        57.18120         0.20502
C         56.27891        56.41422         0.02042
C         57.49846        58.64083         0.13121
C         56.39877        59.31530        -0.59066
C         57.38496        61.50789         0.07272
C         56.27237        60.77099        -0.45406
C         57.44793        62.93373        -0.13018
C         56.16669        63.68198        -0.36046
C         57.66450        65.34792        -1.43255
C         56.39422        64.94552        -1.14554
C         57.53601        67.56042        -1.71355
C         56.31048        67.98272        -1.15896
C         57.57843        69.95631        -0.31510
C         56.34674        69.29026        -0.56223
C         57.57324        71.25423         0.39405
C         56.27262        71.99537         0.49312
C         57.51295        74.17345         0.55614
C         56.28877        73.47924         0.53295
C         58.33511        55.23362         1.68157
C         59.61869        57.41074         1.71007
C         58.64747        56.51664         1.10310
C         59.65828        58.75475         1.39434
C         58.55516        59.38968         0.66264
C         59.60479        61.58837         1.18139
C         58.50770        60.81560         0.60071
C         59.72049        63.06013         0.77265
C         58.66338        63.63177        -0.06344
C         60.12306        65.57551        -0.56826
C         58.87600        64.89319        -0.73551
C         60.45169        66.95386        -0.97195
C         58.72682        68.23184        -1.51141
C         60.10783        69.94335        -0.35783
C         58.82127        69.39037        -0.71853
C         60.11395        71.35310         0.10596
C         58.84703        72.04415         0.46108
C         59.96697        74.25577         0.39842
C         58.78637        73.53622         0.45323
C         60.78408        59.53614         1.81796
C         62.00173        61.67703         1.87465
C         60.83666        60.90637         1.62678
C         62.13434        63.01243         1.46546
C         61.03811        63.69411         0.79549
C         62.52639        65.61694         0.27190
C         61.18220        64.93136         0.19719
C         62.37195        67.09696         0.53321
C         61.34320        67.76548        -0.28106
C         62.54803        69.95349         0.05391
C         61.30449        69.22849        -0.25937
C         62.60539        71.40611        -0.04004
C         61.33822        72.14375        -0.20824
C         62.52949        74.27185         0.45913
C         61.27353        73.64329         0.07973
C         63.36119        63.70247         1.66230
C         64.73568        65.72302         1.45429
C         63.55300        65.00097         1.19119
C         64.86412        67.10689         1.17605
C         63.61885        67.86163         0.88221
C         65.01060        69.88599         0.41773
C         63.69143        69.25957         0.43955
C         65.05238        71.43099         0.29437
C         63.76618        72.12913         0.19981
C         64.94556        74.21695         0.83151
C         63.73774        73.56361         0.46265
C         66.06469        67.80367         1.31129
C         67.32532        69.92710         1.28600
C         66.16882        69.20265         1.03574
C         67.36804        71.36605         1.22979
C         66.21712        72.10944         0.86378
C         67.32905        74.18751         1.52127
C         66.16022        73.51896         1.06399
C         68.51048        72.07282         1.68001
C         68.48656        73.46543         1.79830
O         37.15894        60.23556         0.88120
O         61.26936        73.05906        -1.31479
O         35.84307        69.38677         1.99768
O         41.14075        64.94602         1.46048
O         49.03856        55.67060        -0.27858
O         29.11253        63.33322        -1.76377
O         44.67985        47.81253        -2.66235
O         42.00735        48.06936        -0.03891
O         38.27538        71.23183         2.68987
O         37.87907        47.65258        -2.56991
O         53.69647        56.49340        -2.45348
O         29.03370        64.99503         1.61989
O         39.44171        56.87342        -2.84982
O         45.39272        61.11943        -3.02791
O         47.79732        70.67814        -1.92068
O         62.55476        67.57364         1.88332
O         58.67981        56.53527        -0.36660
O         57.73506        66.36084        -2.41732
O         37.35634        54.57120         0.01893
O         65.34143        70.55315        -0.83781
O         39.61496        58.25738         0.35821
O         48.36023        41.38994        -0.69079
O         34.55915        59.04895        -2.93202
O         34.48559        56.43836        -2.83946
O         40.65342        45.48652        -2.22996
O         34.31544        62.82003         1.30552
O         50.06816        46.08840         2.32035
O         44.37184        63.26726         0.93124
O         59.84414        67.59372        -2.07528
O         52.76852        48.67940         2.75752
O         45.06870        57.75543        -3.42930
O         44.21844        40.38714         2.76278
O         32.40415        65.69097        -1.84241
O         56.28935        58.86275        -2.00367
O         44.79081        37.11148         3.97445
O         49.61250        63.17226        -3.22030
O         46.06635        43.51364        -1.58354
O         40.21650        53.46855        -3.53613
O         46.51088        39.36957         3.31640
O         52.05685        65.53786        -2.95781
O         51.02917        54.41495        -3.03525
O         59.20268        62.66005         2.09205
O         51.07121        51.87262        -2.11800
O         50.21257        57.71590        -3.17617
O         46.88602        52.59067         0.14454
O         49.94743        48.62342         1.91520
O         56.85442        71.31065         1.66636
O         46.78637        65.56380        -2.73333
O         49.22227        50.90338         0.79585
O         50.57284        61.10309        -0.19092
O         41.83544        59.50600         0.48929
O         34.78203        71.84795        -0.67122
O         49.22789        69.34571         1.08205
O         35.39785        66.32629        -1.34819
O         42.36100        66.37099        -1.52394
O         44.14645        37.58479         0.45065
O         40.28615        41.35168        -0.22989
O         59.73457        71.51628         1.52135
O         32.08536        61.10530        -2.30221
O         63.11173        65.59540        -1.10904
O         63.20296        64.17678        -1.47057
H         63.61962        64.23545        -2.36424
O         35.00915        49.18854        -2.57003
H         35.82456        48.70485        -2.82360
O         44.51452        60.19654         0.35110
H         43.72249        59.96225         0.89296
O         44.53316        68.61443         1.93052
H         44.39652        69.42950         2.47613
O         31.56629        63.52528        -2.69732
H         32.18140        64.23542        -2.98895
O         39.41499        73.44924         3.40843
H         38.85266        72.75419         3.82318
O         55.26620        65.77129        -3.13879
H         56.18420        66.04510        -3.37539
O         35.48855        52.71930         1.00401
H         36.25809        53.29452         1.21869
O         51.62395        68.55765         1.38501
H         50.72919        68.51714         1.80092
O         38.22095        51.91440        -3.51080
H         38.64807        52.64138        -4.02619
O         31.38084        69.70053        -1.39317
H         32.10227        69.28896        -1.91633
O         47.17216        44.35892         1.81014
H         47.83468        44.92238         2.26884
O         55.67883        64.07164         0.97537
H         55.81027        63.31064         1.57982
O         37.30326        72.27845        -0.65934
H         36.52593        72.53455        -1.21023
O         29.58117        71.58983         3.35113
H         28.83141        71.97229         3.85493
O         34.64039        60.40848         1.09369
H         35.38964        60.41568         1.73332
O         36.92200        59.98487        -2.66110
H         36.19295        59.83894        -3.31373
O         33.75142        65.21268         1.58530
H         34.02932        64.41068         2.09360
O         45.87447        72.36753        -1.88307
H         46.31079        71.69367        -2.45794
O         43.32622        70.98389         2.64802
H         42.52493        70.70522         3.14341
H         23.16322        75.03329         2.76124
H         25.62683        75.06950         2.46111
H         28.05364        75.12544         2.02816
H         30.51134        75.15966         1.77406
H         32.95587        75.15742         1.75865
H         35.43552        75.11459         1.83293
H         37.81480        75.06053         2.12615
H         40.40649        75.09251         1.25710
H         42.79168        75.09524         0.94570
H         45.22885        75.15405         0.77562
H         47.67269        75.17177         0.52859
H         50.12668        75.19675         0.44776
H         52.58129        75.19995         0.52372
H         55.02303        75.23518         0.55896
H         57.48783        75.27382         0.57688
H         59.93641        75.34887         0.52803
H         62.51070        75.30139         0.84706
H         64.92219        75.30378         1.00171
H         67.30773        75.27782         1.65803
H         22.16635        69.20417         1.91770
H         20.96402        71.32774         2.38787
H         21.01384        73.78002         2.79286
H         24.58563        64.98135         1.10485
H         23.38760        67.08254         1.49763
H         27.15075        60.75252         0.75851
H         25.86784        62.83238         0.97422
H         29.49816        56.47625         0.01027
H         28.29927        58.64513         0.33320
H         31.85787        52.15461        -0.66144
H         30.59538        54.38668        -0.42656
H         34.83145        48.72784         0.65899
H         33.04462        50.19365        -1.24617
H         37.22483        44.40173         1.56573
H         36.02101        46.49649         1.13622
H         39.41861        39.88884         2.63685
H         38.47758        42.56320         2.35760
H         41.57441        35.49824         2.55692
H         40.45090        37.78529         2.57988
H         44.98799        32.17238         3.18281
H         42.84036        33.35197         2.82750
H         47.15135        33.36100         3.12619
H         48.41269        35.40669         2.60477
H         49.70205        37.45850         2.04142
H         50.97928        39.54829         1.64908
H         52.21289        41.73039         1.55348
H         53.36380        43.88911         1.56339
H         54.53144        46.03379         1.61155
H         55.81389        48.26387         1.79580
H         56.89967        50.48690         2.09104
H         57.96454        52.69133         2.25361
H         58.95593        54.85773         2.50779
H         60.35453        56.99295         2.41281
H         61.65435        59.00937         2.23610
H         62.87626        61.17290         2.31261
H         64.15591        63.21540         2.24727
H         65.58143        65.19820         1.92485
H         66.96830        67.26306         1.63116
H         68.20723        69.40257         1.68395
H         69.41631        71.51349         1.95374
H         69.38559        73.99365         2.14547
