         420
 CSIRO Nanostructure Databank - Neutral Graphene Oxide Data Set
C         28.65556        27.94822        -3.51789
C         28.30166        29.02362        -2.53047
C         27.19078        29.92053        -3.00562
C         28.20605        31.89372        -1.96759
C         27.12562        31.22866        -2.67376
C         28.16033        33.26594        -1.64462
C         26.97069        34.03032        -1.70828
C         28.06595        36.06814        -0.86044
C         26.93069        35.37397        -1.35954
C         28.00242        37.48152        -0.47362
C         26.81036        38.27876        -0.72209
C         27.84357        40.31653         0.22475
C         26.72695        39.59540        -0.40922
C         27.93314        41.80574         0.20605
C         26.76558        42.57444        -0.01612
C         27.95692        44.61964         0.51516
C         26.77408        43.94912         0.11792
C         27.97975        46.02906         0.70681
C         30.96338        27.88200        -2.68149
C         29.88765        27.39865        -3.53117
C         30.77253        29.07861        -1.94637
C         29.51487        29.78596        -2.04927
C         30.41968        31.74686        -0.82273
C         29.38039        31.11624        -1.66356
C         30.52246        33.19347        -0.74094
C         29.45568        34.01906        -1.40549
C         30.42777        35.96016        -0.15811
C         29.29094        35.36757        -0.73759
C         30.32335        37.31780         0.48172
C         29.12559        38.10290         0.02953
C         30.41778        40.27568         0.22278
C         29.11196        39.52984         0.41027
C         30.38974        41.70326         0.71493
C         29.13991        42.44701         0.55400
C         30.33122        44.54805         1.15128
C         29.14894        43.86795         0.73815
C         30.35611        45.94896         1.26796
C         29.14274        46.67136         1.05757
C         33.68384        25.26470        -3.11952
C         32.48379        25.99133        -3.29563
C         33.36909        27.87452        -1.99501
C         32.24255        27.22393        -2.68450
C         33.11925        29.05147        -1.14618
C         31.86307        29.65086        -1.19433
C         32.88299        31.68214        -0.11348
C         31.68266        30.93506        -0.50293
C         32.83168        33.05870         0.14097
C         31.64233        33.80790        -0.18598
C         32.83021        35.91612         0.40283
C         31.63578        35.24355         0.01197
C         32.83102        37.34870         0.55523
C         31.62698        38.08311         0.47576
C         32.84016        40.15675         0.90192
C         31.63860        39.48187         0.62264
C         32.82221        41.56872         1.43325
C         31.54494        42.32174         1.10598
C         32.86726        44.48217         1.56162
C         31.53613        43.75617         1.45696
C         32.85966        45.95226         1.44179
C         31.62290        46.65437         1.45010
C         32.86165        48.74912         1.44335
C         31.65939        48.06556         1.48555
C         36.11555        23.65551        -2.54127
C         35.88840        24.91038        -1.95777
C         34.72072        25.70493        -2.30409
C         35.50871        27.44962        -0.62825
C         34.64465        27.07806        -1.78840
C         35.34895        28.78794         0.04384
C         34.19570        29.63057        -0.38161
C         35.20205        31.58689         0.78407
C         34.09031        30.94018         0.05900
C         35.24956        33.06660         0.71592
C         34.05591        33.76536         0.48005
C         35.28355        35.89329         0.71178
C         34.04982        35.19732         0.53654
C         35.29408        37.31791         0.76439
C         34.06571        38.03995         0.72331
C         35.31176        40.16789         0.97234
C         34.06370        39.45283         0.90047
C         35.30898        41.60099         0.97437
C         34.09782        42.33516         1.11754
C         35.30769        44.48566         1.08309
C         34.11949        43.74901         1.24100
C         35.35060        45.90312         1.23472
C         34.08899        46.64168         1.37531
C         35.34260        48.78611         1.26017
C         34.09018        48.06079         1.35106
C         35.37817        50.13786         0.99368
C         38.20684        23.34112        -1.33455
C         37.27293        22.90935        -2.27307
C         37.97462        24.58600        -0.68402
C         36.86932        25.41785        -1.03256
C         37.69213        27.20876         0.51013
C         36.76151        26.71257        -0.43556
C         37.68253        28.62366         0.95166
C         36.55615        29.38271         0.68450
C         37.69679        31.60608         1.33519
C         36.44475        30.81171         1.09855
C         37.72864        33.04335         0.98830
C         36.49828        33.74943         0.84364
C         37.75630        35.86984         0.83032
C         36.51092        35.17435         0.79525
C         37.75812        37.29875         0.82479
C         36.53008        38.01963         0.84623
C         37.78143        40.15336         0.88231
C         36.53199        39.45098         0.89622
C         37.76277        41.58829         0.92436
C         36.56576        42.28981         0.90686
C         37.83513        44.48740         0.91918
C         36.54523        43.77018         0.61115
C         37.82519        45.90923         1.04450
C         36.57640        46.59540         1.21477
C         37.87496        48.78677         1.24824
C         36.60905        48.04980         1.62347
C         37.82209        50.21103         1.13201
C         36.59648        50.85745         0.98628
C         40.41222        20.33839        -0.62228
C         39.39255        21.07980        -1.10173
C         40.28664        23.03479         0.09380
C         39.51480        22.59334        -1.13534
C         39.84121        24.08820         0.84528
C         38.78722        24.98576         0.42134
C         40.42418        27.22673         1.79461
C         38.58765        26.23210         1.02254
C         40.28351        28.68499         1.73728
C         38.91260        29.32606         1.53892
C         40.25755        31.57553         1.19194
C         38.98375        30.85171         1.46174
C         40.22877        32.97455         1.01003
C         38.97246        33.71251         0.96237
C         40.21644        35.85580         0.69787
C         38.98323        35.14179         0.84673
C         40.19650        37.26071         0.56844
C         38.99657        38.00496         0.72176
C         40.25242        40.15895         0.59327
C         38.99821        39.43926         0.74253
C         40.27763        41.58043         0.67288
C         39.06244        42.30150         1.20177
C         40.27414        44.47915         0.79972
C         39.03652        43.78112         0.89853
C         40.27902        45.90865         0.82468
C         39.06146        46.62098         1.03337
C         40.33101        48.74864         0.92306
C         39.08540        48.06804         1.11075
C         40.38995        50.21269         1.07036
C         39.07857        50.99649         1.16795
C         40.29685        53.04219         0.53311
C         39.11866        52.41081         0.76577
C         42.79606        20.24346         0.12687
C         41.60003        20.95852        -0.03724
C         42.68941        22.94433         0.91108
C         41.52732        22.31535         0.38039
C         42.71173        24.37230         1.18380
C         41.64101        25.09541         1.62215
C         42.78526        27.31062         1.27137
C         41.60222        26.54741         1.59054
C         42.73959        28.70170         1.26824
C         41.52554        29.45404         1.44613
C         42.74019        31.56955         0.96340
C         41.49625        30.84485         1.19162
C         42.71251        33.00194         0.83655
C         41.46861        33.71105         0.84032
C         42.70112        35.84460         0.50332
C         41.46346        35.12262         0.66504
C         42.70704        37.25426         0.33128
C         41.41386        37.97016         0.05295
C         42.67284        40.13663         0.19184
C         41.44486        39.44587         0.35503
C         42.67586        41.57180         0.19440
C         41.47067        42.29217         0.45393
C         42.67367        44.47142         0.35041
C         41.48840        43.75599         0.54940
C         42.70835        45.89317         0.41829
C         41.51035        46.61410         0.63631
C         42.74857        48.76046         0.36164
C         41.52088        48.05250         0.64230
C         42.76297        50.19474         0.29662
C         41.58300        50.92823         0.59453
C         42.74175        53.01191         0.09020
C         41.55130        52.32840         0.45481
C         43.93821        20.86825         0.63053
C         45.10888        22.88464         1.55920
C         43.91851        22.22435         1.00517
C         45.11395        24.36768         1.68619
C         44.00024        25.08625         1.00769
C         45.34735        27.25102         1.32044
C         44.05019        26.56743         1.04962
C         45.30015        28.65486         0.84785
C         43.98044        29.40630         0.86439
C         45.21082        31.57814         0.78866
C         43.96520        30.88300         0.89133
C         45.18427        33.00362         0.65367
C         43.94145        33.71250         0.66288
C         45.17339        35.84257         0.29113
C         43.94202        35.13203         0.49843
C         45.18017        37.27247         0.15758
C         43.91468        37.98545         0.17713
C         45.13262        40.12893        -0.39518
C         43.89000        39.39761         0.04114
C         45.12114        41.59565        -0.03799
C         43.91767        42.27332         0.05843
C         45.16692        44.44486         0.38863
C         43.91073        43.77162        -0.14779
C         45.16198        45.91526         0.05538
C         43.95179        46.61006         0.19006
C         45.15721        48.74010        -0.20906
C         43.94191        48.04260         0.10751
C         45.16325        50.16086        -0.30556
C         43.95511        50.89787        -0.05480
C         43.91008        52.31835        -0.13585
C         47.29000        22.89018         2.64166
C         46.19563        22.19624         2.03253
C         47.37199        24.25591         2.67683
C         46.31431        25.15727         2.16724
C         47.77461        27.38155         1.84546
C         46.48626        26.61426         1.76840
C         47.75533        28.72209         1.47963
C         46.61434        29.38595         0.72050
C         47.64332        31.64173         0.73826
C         46.46138        30.89876         0.87169
C         47.61537        33.00020         0.38077
C         46.39590        33.70504         0.39123
C         47.63055        35.82945        -0.01307
C         46.39471        35.13220         0.19907
C         47.64552        37.25558        -0.02562
C         46.40072        37.96452         0.03198
C         47.60707        40.09688        -0.06413
C         46.42581        39.41208        -0.08474
C         47.62063        41.56915        -0.00238
C         46.36495        42.32187        -0.05820
C         47.61536        44.42548        -0.35947
C         46.41444        43.70871        -0.02632
C         47.56930        45.84691        -0.54045
C         46.36677        46.58621        -0.28708
C         47.57000        48.68858        -0.79945
C         46.36002        48.00496        -0.44702
C         47.53660        50.11433        -0.88824
C         46.38280        50.81714        -0.64835
C         50.62497        25.01946         3.06821
C         49.31288        25.59675         2.89783
C         50.38363        27.59407         2.12947
C         49.07524        26.78307         2.22829
C         50.28781        28.87069         1.37020
C         48.99197        29.55511         1.47509
C         50.17921        31.66379         0.61167
C         48.93666        30.99334         1.05703
C         50.11911        32.96733         0.13660
C         48.82131        33.61615        -0.27307
C         50.03296        35.82721        -0.47563
C         48.85485        35.12665        -0.19750
C         50.06567        37.25480        -0.44498
C         48.88005        37.94969        -0.17000
C         50.09132        40.13471        -0.57572
C         48.94669        39.42119         0.13927
C         50.07531        41.51685        -0.75076
C         48.90701        42.30593        -0.30751
C         49.92379        44.38093        -1.24686
C         48.80724        43.72773        -0.65344
C         49.86179        45.76940        -1.46406
C         48.72407        46.51756        -1.04032
C         50.02074        48.59161        -1.35018
C         48.74643        47.94938        -1.09336
C         51.72012        25.51541         2.42390
C         52.71536        27.38665         1.14886
C         51.63384        26.79857         1.79324
C         52.68954        28.79733         0.78398
C         51.44959        29.55224         0.99556
C         52.67840        31.65492         0.50834
C         51.41007        30.94656         0.69918
C         52.64811        33.10308         0.13530
C         51.33916        33.64983        -0.31532
C         52.57261        35.85179        -0.80476
C         51.29970        35.10035        -0.69987
C         52.51232        37.27187        -0.97779
C         51.29796        37.97206        -0.76257
C         52.43274        40.08796        -1.37341
C         51.26920        39.39145        -0.90983
C         52.38766        41.49291        -1.59523
C         51.18879        42.22414        -1.31892
C         52.26393        44.31435        -2.09107
C         51.12164        43.62460        -1.56015
C         52.21361        45.70031        -2.39336
C         50.92000        46.47234        -2.27720
C         51.08475        47.90009        -1.81817
C         55.04794        27.23632         0.35536
C         53.97038        26.67479         0.94342
C         55.01584        28.61786        -0.23254
C         53.80280        29.39293         0.22769
C         55.06054        31.48097        -0.60596
C         53.91745        30.86208         0.19979
C         55.12400        33.00629        -0.55118
C         53.89722        33.79411        -0.31214
C         55.00622        35.84272        -1.20984
C         53.78930        35.17112        -0.85681
C         54.93839        37.26034        -1.51658
C         53.71252        37.96900        -1.35157
C         54.82254        40.06594        -2.04339
C         53.65731        39.37494        -1.59557
C         54.76151        41.48096        -2.30869
C         53.54637        42.18525        -2.07729
C         54.61818        44.27305        -2.83879
C         53.47579        43.58982        -2.32794
C         54.53167        45.65091        -3.13652
C         53.34176        46.33875        -2.93148
C         56.28397        29.41804         0.00252
C         56.31801        30.74656        -0.17686
C         56.21641        33.69170        -1.02677
C         56.19080        35.09671        -1.25785
C         56.07901        37.97414        -1.95418
C         56.02138        39.32835        -2.21801
C         55.89274        42.19921        -2.79888
C         55.82547        43.54525        -3.06091
O         48.99120        30.63638         2.50761
O         53.38305        33.89092         1.11043
O         44.17768        25.79511        -0.24613
O         39.38790        29.02810         2.88198
O         34.57313        28.09277        -2.84058
O         34.81814        27.55899         0.66802
O         40.49722        24.40009         2.05347
O         53.70154        31.40706         1.53624
O         39.28549        26.53710         2.20329
O         48.50740        42.04818         1.09573
O         44.52009        28.82519        -0.39228
O         32.15504        44.02838         2.77631
O         38.29474        31.38826         2.65405
O         51.26787        34.03256        -1.74967
O         48.36263        24.77655         3.48424
O         39.88075        50.70188         2.36093
O         45.15371        24.90899         3.06410
O         35.42835        31.03198         2.13655
O         30.58238        31.03064         0.45394
O         28.27479        39.81712         1.55977
O         48.65890        33.28687        -1.70057
H         49.50436        33.55695        -2.14113
O         45.10286        44.33945         1.84235
H         45.95346        44.66000         2.20874
O         27.77944        28.32302        -1.34035
H         27.69963        28.98778        -0.62313
O         39.19931        42.23233         2.66993
H         40.05010        42.65951         2.90674
O         36.44814        43.83420        -0.87233
H         37.24227        43.38628        -1.23549
O         41.27020        37.90308        -1.43311
H         42.11958        38.21581        -1.81388
O         32.82163        41.40584         2.88966
H         32.66199        42.30626         3.27031
O         40.31375        22.91624        -2.31890
H         41.19075        22.49278        -2.20006
O         36.62250        48.01360         3.11006
H         36.77975        48.93182         3.41894
O         29.95743        34.31748        -2.76746
H         29.29176        34.89613        -3.19726
O         45.07531        40.12306        -1.88305
H         44.33890        40.71563        -2.14678
O         54.90835        28.45014        -1.69836
H         54.11658        27.89818        -1.87455
O         43.92477        43.95635        -1.59969
H         43.05069        43.68042        -1.94647
O         54.80820        31.18876        -2.00726
H         54.90856        30.20956        -2.13535
O         50.39094        46.54608        -3.65485
H         49.54307        47.03777        -3.61018
O         30.51868        40.37897        -1.24515
H         31.37195        40.81198        -1.46024
O         50.62573        28.06031         3.51721
H         50.06709        28.85602         3.66507
O         49.25336        39.49722         1.56971
H         49.15049        40.44947         1.81979
O         30.07683        37.06055         1.91703
H         29.14257        36.77879         2.01581
O         47.04815        29.22736        -0.67325
H         46.22300        29.18893        -1.21355
H         27.86762        27.56805        -4.18504
H         26.36434        29.45360        -3.56276
H         26.26175        31.82557        -3.00063
H         26.02584        33.53729        -1.97787
H         25.96260        35.88918        -1.41435
H         25.95023        37.80417        -1.21398
H         25.82415        40.15251        -0.69850
H         25.82691        42.07202        -0.28588
H         25.85745        44.52985        -0.05770
H         27.05495        46.60364         0.55390
H         30.10255        26.58243        -4.23524
H         29.12501        47.76279         1.17043
H         33.73911        24.26889        -3.58119
H         31.68453        25.50286        -3.86953
H         32.84603        49.84613         1.48548
H         30.73090        48.64687         1.54653
H         35.39465        23.25385        -3.26615
H         34.45248        50.69354         0.79042
H         37.43235        21.96651        -2.81462
H         36.55433        51.94550         0.85040
H         40.37977        19.23939        -0.68056
H         38.52076        20.59351        -1.56446
H         40.30281        54.11412         0.28529
H         38.17893        52.97148         0.66555
H         42.84063        19.18663        -0.17326
H         42.72147        54.10668        -0.00910
H         44.86787        20.28857         0.71471
H         44.81398        52.88228        -0.40043
H         48.08002        22.30771         3.13319
H         46.22617        21.09874         2.00788
H         48.44616        50.66470        -1.16329
H         46.40984        51.91147        -0.73194
H         50.68339        24.07169         3.62012
H         50.13713        49.65775        -1.10787
H         52.66388        24.95480         2.44409
H         52.04403        48.41504        -1.96999
H         55.97011        26.64985         0.22549
H         54.04948        25.63724         1.29748
H         55.40716        46.17039        -3.55148
H         53.28605        47.40003        -3.20993
H         57.19190        28.87092         0.29958
H         57.25237        31.30673        -0.01891
H         57.14637        33.14974        -1.25402
H         57.13272        35.57924        -1.55197
H         57.03311        37.44929        -2.09653
H         56.93467        39.83225        -2.55963
H         56.83830        41.67301        -2.98374
H         56.70477        44.07874        -3.44968
